* NGSPICE file created from converter_1.ext - technology: sky130A

.subckt level_shifter level_shifter_0/VDD level_shifter_0/VH level_shifter_0/GND level_shifter_0/IN
+ level_shifter_0/OUT
X0 a_1660_2346# level_shifter_0/cruzados_0/OUT level_shifter_0/VH level_shifter_0/VH sky130_fd_pr__pfet_g5v0d10v5 ad=0.58 pd=4.58 as=0.58 ps=4.58 w=2 l=0.5
X1 level_shifter_0/OUT level_shifter_0/inv_400_0/IN level_shifter_0/GND level_shifter_0/GND sky130_fd_pr__nfet_g5v0d10v5 ad=2.9 pd=20.3 as=2.9 ps=20.3 w=20 l=0.5
X2 level_shifter_0/GND level_shifter_0/IN level_shifter_0/inv_400_0/IN level_shifter_0/GND sky130_fd_pr__nfet_g5v0d10v5 ad=1.45 pd=10.3 as=1.45 ps=10.3 w=10 l=0.5
X3 level_shifter_0/VH level_shifter_0/inv_400_0/IN level_shifter_0/OUT level_shifter_0/VH sky130_fd_pr__pfet_g5v0d10v5 ad=2.9 pd=20.3 as=2.9 ps=20.3 w=20 l=0.5
X4 level_shifter_0/OUT level_shifter_0/inv_400_0/IN level_shifter_0/VH level_shifter_0/VH sky130_fd_pr__pfet_g5v0d10v5 ad=2.9 pd=20.3 as=2.9 ps=20.3 w=20 l=0.5
X5 level_shifter_0/GND level_shifter_0/inv_400_0/IN level_shifter_0/OUT level_shifter_0/GND sky130_fd_pr__nfet_g5v0d10v5 ad=2.9 pd=20.3 as=2.9 ps=20.3 w=20 l=0.5
X6 level_shifter_0/OUT level_shifter_0/inv_400_0/IN level_shifter_0/GND level_shifter_0/GND sky130_fd_pr__nfet_g5v0d10v5 ad=2.9 pd=20.3 as=2.9 ps=20.3 w=20 l=0.5
X7 level_shifter_0/VH level_shifter_0/cruzados_0/OUT level_shifter_0/inv_400_0/IN level_shifter_0/VH sky130_fd_pr__pfet_g5v0d10v5 ad=1.45 pd=10.3 as=1.45 ps=10.3 w=10 l=0.5
X8 level_shifter_0/OUT level_shifter_0/inv_400_0/IN level_shifter_0/VH level_shifter_0/VH sky130_fd_pr__pfet_g5v0d10v5 ad=2.9 pd=20.3 as=2.9 ps=20.3 w=20 l=0.5
X9 level_shifter_0/inv_400_0/IN level_shifter_0/cruzados_0/OUT level_shifter_0/VH level_shifter_0/VH sky130_fd_pr__pfet_g5v0d10v5 ad=1.45 pd=10.3 as=1.45 ps=10.3 w=10 l=0.5
X10 level_shifter_0/inv_1_8_0/OUT level_shifter_0/IN level_shifter_0/GND level_shifter_0/GND sky130_fd_pr__nfet_01v8 ad=0.165 pd=1.33 as=0.31 ps=2.62 w=1 l=0.15
X11 level_shifter_0/OUT level_shifter_0/inv_400_0/IN level_shifter_0/GND level_shifter_0/GND sky130_fd_pr__nfet_g5v0d10v5 ad=2.9 pd=20.3 as=2.9 ps=20.3 w=20 l=0.5
X12 level_shifter_0/GND level_shifter_0/inv_400_0/IN level_shifter_0/OUT level_shifter_0/GND sky130_fd_pr__nfet_g5v0d10v5 ad=2.9 pd=20.3 as=2.9 ps=20.3 w=20 l=0.5
X13 level_shifter_0/GND level_shifter_0/inv_400_0/IN level_shifter_0/OUT level_shifter_0/GND sky130_fd_pr__nfet_g5v0d10v5 ad=5.8 pd=40.6 as=2.9 ps=20.3 w=20 l=0.5
X14 level_shifter_0/OUT level_shifter_0/inv_400_0/IN level_shifter_0/VH level_shifter_0/VH sky130_fd_pr__pfet_g5v0d10v5 ad=2.9 pd=20.3 as=2.9 ps=20.3 w=20 l=0.5
X15 level_shifter_0/OUT level_shifter_0/inv_400_0/IN level_shifter_0/GND level_shifter_0/GND sky130_fd_pr__nfet_g5v0d10v5 ad=2.9 pd=20.3 as=2.9 ps=20.3 w=20 l=0.5
X16 level_shifter_0/OUT level_shifter_0/inv_400_0/IN level_shifter_0/VH level_shifter_0/VH sky130_fd_pr__pfet_g5v0d10v5 ad=2.9 pd=20.3 as=2.9 ps=20.3 w=20 l=0.5
X17 level_shifter_0/GND level_shifter_0/IN level_shifter_0/inv_1_8_0/OUT level_shifter_0/GND sky130_fd_pr__nfet_01v8 ad=0.165 pd=1.33 as=0.165 ps=1.33 w=1 l=0.15
X18 level_shifter_0/VH level_shifter_0/cruzados_0/OUT level_shifter_0/inv_400_0/IN level_shifter_0/VH sky130_fd_pr__pfet_g5v0d10v5 ad=1.45 pd=10.3 as=1.45 ps=10.3 w=10 l=0.5
X19 level_shifter_0/OUT level_shifter_0/inv_400_0/IN level_shifter_0/VH level_shifter_0/VH sky130_fd_pr__pfet_g5v0d10v5 ad=2.9 pd=20.3 as=2.9 ps=20.3 w=20 l=0.5
X20 level_shifter_0/inv_1_8_0/OUT level_shifter_0/IN level_shifter_0/VDD level_shifter_0/VDD sky130_fd_pr__pfet_01v8 ad=0.31 pd=2.62 as=0.165 ps=1.33 w=1 l=0.15
X21 level_shifter_0/cruzados_0/OUT level_shifter_0/inv_1_8_0/OUT level_shifter_0/GND level_shifter_0/GND sky130_fd_pr__nfet_g5v0d10v5 ad=1.16 pd=8.58 as=0.58 ps=4.29 w=4 l=0.5
X22 level_shifter_0/GND level_shifter_0/inv_400_0/IN level_shifter_0/OUT level_shifter_0/GND sky130_fd_pr__nfet_g5v0d10v5 ad=2.9 pd=20.3 as=2.9 ps=20.3 w=20 l=0.5
X23 level_shifter_0/VH level_shifter_0/inv_400_0/IN level_shifter_0/OUT level_shifter_0/VH sky130_fd_pr__pfet_g5v0d10v5 ad=2.9 pd=20.3 as=2.9 ps=20.3 w=20 l=0.5
X24 level_shifter_0/GND level_shifter_0/inv_400_0/IN level_shifter_0/OUT level_shifter_0/GND sky130_fd_pr__nfet_g5v0d10v5 ad=2.9 pd=20.3 as=2.9 ps=20.3 w=20 l=0.5
X25 level_shifter_0/inv_1_8_0/OUT level_shifter_0/IN level_shifter_0/VDD level_shifter_0/VDD sky130_fd_pr__pfet_01v8 ad=0.165 pd=1.33 as=0.31 ps=2.62 w=1 l=0.15
X26 level_shifter_0/VH level_shifter_0/inv_400_0/IN level_shifter_0/OUT level_shifter_0/VH sky130_fd_pr__pfet_g5v0d10v5 ad=2.9 pd=20.3 as=2.9 ps=20.3 w=20 l=0.5
X27 level_shifter_0/inv_1_8_0/OUT level_shifter_0/IN level_shifter_0/GND level_shifter_0/GND sky130_fd_pr__nfet_01v8 ad=0.165 pd=1.33 as=0.165 ps=1.33 w=1 l=0.15
X28 level_shifter_0/inv_400_0/IN level_shifter_0/IN level_shifter_0/GND level_shifter_0/GND sky130_fd_pr__nfet_g5v0d10v5 ad=1.45 pd=10.3 as=1.45 ps=10.3 w=10 l=0.5
X29 level_shifter_0/VH level_shifter_0/inv_400_0/IN level_shifter_0/OUT level_shifter_0/VH sky130_fd_pr__pfet_g5v0d10v5 ad=2.9 pd=20.3 as=2.9 ps=20.3 w=20 l=0.5
X30 level_shifter_0/VDD level_shifter_0/IN level_shifter_0/inv_1_8_0/OUT level_shifter_0/VDD sky130_fd_pr__pfet_01v8 ad=0.165 pd=1.33 as=0.165 ps=1.33 w=1 l=0.15
X31 level_shifter_0/GND level_shifter_0/inv_400_0/IN level_shifter_0/OUT level_shifter_0/GND sky130_fd_pr__nfet_g5v0d10v5 ad=2.9 pd=20.3 as=2.9 ps=20.3 w=20 l=0.5
X32 level_shifter_0/cruzados_0/OUT a_1660_2346# level_shifter_0/VH level_shifter_0/VH sky130_fd_pr__pfet_g5v0d10v5 ad=0.58 pd=4.58 as=0.58 ps=4.58 w=2 l=0.5
X33 level_shifter_0/OUT level_shifter_0/inv_400_0/IN level_shifter_0/GND level_shifter_0/GND sky130_fd_pr__nfet_g5v0d10v5 ad=2.9 pd=20.3 as=2.9 ps=20.3 w=20 l=0.5
X34 level_shifter_0/OUT level_shifter_0/inv_400_0/IN level_shifter_0/GND level_shifter_0/GND sky130_fd_pr__nfet_g5v0d10v5 ad=2.9 pd=20.3 as=5.8 ps=40.6 w=20 l=0.5
X35 level_shifter_0/inv_400_0/IN level_shifter_0/IN level_shifter_0/GND level_shifter_0/GND sky130_fd_pr__nfet_g5v0d10v5 ad=1.45 pd=10.3 as=1.45 ps=10.3 w=10 l=0.5
X36 level_shifter_0/GND level_shifter_0/IN level_shifter_0/inv_400_0/IN level_shifter_0/GND sky130_fd_pr__nfet_g5v0d10v5 ad=2.9 pd=20.6 as=1.45 ps=10.3 w=10 l=0.5
X37 level_shifter_0/cruzados_0/OUT level_shifter_0/inv_1_8_0/OUT level_shifter_0/GND level_shifter_0/GND sky130_fd_pr__nfet_g5v0d10v5 ad=0.58 pd=4.29 as=1.16 ps=8.58 w=4 l=0.5
X38 level_shifter_0/GND level_shifter_0/inv_400_0/IN level_shifter_0/OUT level_shifter_0/GND sky130_fd_pr__nfet_g5v0d10v5 ad=2.9 pd=20.3 as=2.9 ps=20.3 w=20 l=0.5
X39 level_shifter_0/OUT level_shifter_0/inv_400_0/IN level_shifter_0/GND level_shifter_0/GND sky130_fd_pr__nfet_g5v0d10v5 ad=2.9 pd=20.3 as=2.9 ps=20.3 w=20 l=0.5
X40 level_shifter_0/GND level_shifter_0/IN a_1660_2346# level_shifter_0/GND sky130_fd_pr__nfet_g5v0d10v5 ad=0.58 pd=4.29 as=0.58 ps=4.29 w=4 l=0.5
X41 level_shifter_0/inv_400_0/IN level_shifter_0/cruzados_0/OUT level_shifter_0/VH level_shifter_0/VH sky130_fd_pr__pfet_g5v0d10v5 ad=1.45 pd=10.3 as=1.45 ps=10.3 w=10 l=0.5
X42 level_shifter_0/OUT level_shifter_0/inv_400_0/IN level_shifter_0/VH level_shifter_0/VH sky130_fd_pr__pfet_g5v0d10v5 ad=2.9 pd=20.3 as=5.8 ps=40.6 w=20 l=0.5
X43 level_shifter_0/OUT level_shifter_0/inv_400_0/IN level_shifter_0/VH level_shifter_0/VH sky130_fd_pr__pfet_g5v0d10v5 ad=2.9 pd=20.3 as=2.9 ps=20.3 w=20 l=0.5
X44 level_shifter_0/OUT level_shifter_0/inv_400_0/IN level_shifter_0/GND level_shifter_0/GND sky130_fd_pr__nfet_g5v0d10v5 ad=2.9 pd=20.3 as=2.9 ps=20.3 w=20 l=0.5
X45 level_shifter_0/GND level_shifter_0/IN level_shifter_0/inv_400_0/IN level_shifter_0/GND sky130_fd_pr__nfet_g5v0d10v5 ad=1.45 pd=10.3 as=1.45 ps=10.3 w=10 l=0.5
X46 level_shifter_0/OUT level_shifter_0/inv_400_0/IN level_shifter_0/VH level_shifter_0/VH sky130_fd_pr__pfet_g5v0d10v5 ad=2.9 pd=20.3 as=2.9 ps=20.3 w=20 l=0.5
X47 level_shifter_0/GND level_shifter_0/IN level_shifter_0/inv_1_8_0/OUT level_shifter_0/GND sky130_fd_pr__nfet_01v8 ad=0.165 pd=1.33 as=0.165 ps=1.33 w=1 l=0.15
X48 level_shifter_0/inv_1_8_0/OUT level_shifter_0/IN level_shifter_0/VDD level_shifter_0/VDD sky130_fd_pr__pfet_01v8 ad=0.165 pd=1.33 as=0.165 ps=1.33 w=1 l=0.15
X49 level_shifter_0/GND level_shifter_0/inv_400_0/IN level_shifter_0/OUT level_shifter_0/GND sky130_fd_pr__nfet_g5v0d10v5 ad=2.9 pd=20.3 as=2.9 ps=20.3 w=20 l=0.5
X50 level_shifter_0/inv_400_0/IN level_shifter_0/cruzados_0/OUT level_shifter_0/VH level_shifter_0/VH sky130_fd_pr__pfet_g5v0d10v5 ad=1.45 pd=10.3 as=1.45 ps=10.3 w=10 l=0.5
X51 level_shifter_0/VH level_shifter_0/cruzados_0/OUT level_shifter_0/inv_400_0/IN level_shifter_0/VH sky130_fd_pr__pfet_g5v0d10v5 ad=2.9 pd=20.6 as=1.45 ps=10.3 w=10 l=0.5
X52 level_shifter_0/OUT level_shifter_0/inv_400_0/IN level_shifter_0/VH level_shifter_0/VH sky130_fd_pr__pfet_g5v0d10v5 ad=2.9 pd=20.3 as=2.9 ps=20.3 w=20 l=0.5
X53 level_shifter_0/inv_400_0/IN level_shifter_0/IN level_shifter_0/GND level_shifter_0/GND sky130_fd_pr__nfet_g5v0d10v5 ad=1.45 pd=10.3 as=2.9 ps=20.6 w=10 l=0.5
X54 level_shifter_0/GND level_shifter_0/IN level_shifter_0/inv_400_0/IN level_shifter_0/GND sky130_fd_pr__nfet_g5v0d10v5 ad=1.45 pd=10.3 as=1.45 ps=10.3 w=10 l=0.5
X55 level_shifter_0/OUT level_shifter_0/inv_400_0/IN level_shifter_0/VH level_shifter_0/VH sky130_fd_pr__pfet_g5v0d10v5 ad=2.9 pd=20.3 as=2.9 ps=20.3 w=20 l=0.5
X56 level_shifter_0/VH level_shifter_0/inv_400_0/IN level_shifter_0/OUT level_shifter_0/VH sky130_fd_pr__pfet_g5v0d10v5 ad=2.9 pd=20.3 as=2.9 ps=20.3 w=20 l=0.5
X57 level_shifter_0/GND level_shifter_0/inv_1_8_0/OUT level_shifter_0/cruzados_0/OUT level_shifter_0/GND sky130_fd_pr__nfet_g5v0d10v5 ad=0.58 pd=4.29 as=0.58 ps=4.29 w=4 l=0.5
X58 level_shifter_0/VH level_shifter_0/cruzados_0/OUT level_shifter_0/inv_400_0/IN level_shifter_0/VH sky130_fd_pr__pfet_g5v0d10v5 ad=1.45 pd=10.3 as=1.45 ps=10.3 w=10 l=0.5
X59 a_1660_2346# level_shifter_0/IN level_shifter_0/GND level_shifter_0/GND sky130_fd_pr__nfet_g5v0d10v5 ad=1.16 pd=8.58 as=0.58 ps=4.29 w=4 l=0.5
X60 level_shifter_0/VH level_shifter_0/inv_400_0/IN level_shifter_0/OUT level_shifter_0/VH sky130_fd_pr__pfet_g5v0d10v5 ad=5.8 pd=40.6 as=2.9 ps=20.3 w=20 l=0.5
X61 level_shifter_0/inv_400_0/IN level_shifter_0/IN level_shifter_0/GND level_shifter_0/GND sky130_fd_pr__nfet_g5v0d10v5 ad=1.45 pd=10.3 as=1.45 ps=10.3 w=10 l=0.5
X62 level_shifter_0/VH level_shifter_0/inv_400_0/IN level_shifter_0/OUT level_shifter_0/VH sky130_fd_pr__pfet_g5v0d10v5 ad=2.9 pd=20.3 as=2.9 ps=20.3 w=20 l=0.5
X63 level_shifter_0/OUT level_shifter_0/inv_400_0/IN level_shifter_0/GND level_shifter_0/GND sky130_fd_pr__nfet_g5v0d10v5 ad=2.9 pd=20.3 as=2.9 ps=20.3 w=20 l=0.5
X64 level_shifter_0/inv_400_0/IN level_shifter_0/cruzados_0/OUT level_shifter_0/VH level_shifter_0/VH sky130_fd_pr__pfet_g5v0d10v5 ad=1.45 pd=10.3 as=2.9 ps=20.6 w=10 l=0.5
X65 level_shifter_0/VH level_shifter_0/inv_400_0/IN level_shifter_0/OUT level_shifter_0/VH sky130_fd_pr__pfet_g5v0d10v5 ad=2.9 pd=20.3 as=2.9 ps=20.3 w=20 l=0.5
X66 level_shifter_0/VDD level_shifter_0/IN level_shifter_0/inv_1_8_0/OUT level_shifter_0/VDD sky130_fd_pr__pfet_01v8 ad=0.165 pd=1.33 as=0.165 ps=1.33 w=1 l=0.15
X67 level_shifter_0/VH level_shifter_0/cruzados_0/OUT level_shifter_0/inv_400_0/IN level_shifter_0/VH sky130_fd_pr__pfet_g5v0d10v5 ad=1.45 pd=10.3 as=1.45 ps=10.3 w=10 l=0.5
X68 level_shifter_0/VH level_shifter_0/inv_400_0/IN level_shifter_0/OUT level_shifter_0/VH sky130_fd_pr__pfet_g5v0d10v5 ad=2.9 pd=20.3 as=2.9 ps=20.3 w=20 l=0.5
X69 level_shifter_0/OUT level_shifter_0/inv_400_0/IN level_shifter_0/GND level_shifter_0/GND sky130_fd_pr__nfet_g5v0d10v5 ad=2.9 pd=20.3 as=2.9 ps=20.3 w=20 l=0.5
X70 level_shifter_0/GND level_shifter_0/IN level_shifter_0/inv_400_0/IN level_shifter_0/GND sky130_fd_pr__nfet_g5v0d10v5 ad=1.45 pd=10.3 as=1.45 ps=10.3 w=10 l=0.5
X71 level_shifter_0/VH level_shifter_0/inv_400_0/IN level_shifter_0/OUT level_shifter_0/VH sky130_fd_pr__pfet_g5v0d10v5 ad=2.9 pd=20.3 as=2.9 ps=20.3 w=20 l=0.5
X72 level_shifter_0/inv_1_8_0/OUT level_shifter_0/IN level_shifter_0/GND level_shifter_0/GND sky130_fd_pr__nfet_01v8 ad=0.31 pd=2.62 as=0.165 ps=1.33 w=1 l=0.15
X73 level_shifter_0/GND level_shifter_0/inv_400_0/IN level_shifter_0/OUT level_shifter_0/GND sky130_fd_pr__nfet_g5v0d10v5 ad=2.9 pd=20.3 as=2.9 ps=20.3 w=20 l=0.5
X74 level_shifter_0/inv_400_0/IN level_shifter_0/cruzados_0/OUT level_shifter_0/VH level_shifter_0/VH sky130_fd_pr__pfet_g5v0d10v5 ad=1.45 pd=10.3 as=1.45 ps=10.3 w=10 l=0.5
X75 level_shifter_0/inv_400_0/IN level_shifter_0/IN level_shifter_0/GND level_shifter_0/GND sky130_fd_pr__nfet_g5v0d10v5 ad=1.45 pd=10.3 as=1.45 ps=10.3 w=10 l=0.5
X76 a_1660_2346# level_shifter_0/IN level_shifter_0/GND level_shifter_0/GND sky130_fd_pr__nfet_g5v0d10v5 ad=0.58 pd=4.29 as=1.16 ps=8.58 w=4 l=0.5
X77 level_shifter_0/GND level_shifter_0/inv_400_0/IN level_shifter_0/OUT level_shifter_0/GND sky130_fd_pr__nfet_g5v0d10v5 ad=2.9 pd=20.3 as=2.9 ps=20.3 w=20 l=0.5
.ends

.subckt pmos_source_in m5_0_0# m4_648_1020# a_n6_62# m3_0_0# w_0_0# m5_788_894# m4_0_0#
+ a_0_0# a_162_1100# m3_648_1020#
X0 a_162_1100# a_0_0# w_0_0# w_0_0# sky130_fd_pr__pfet_g5v0d10v5 ad=0.131 pd=8.82 as=6.86 ps=16.6 w=4.38 l=0.5
X1 w_0_0# a_0_0# a_n6_62# w_0_0# sky130_fd_pr__pfet_g5v0d10v5 ad=6.86 pd=16.6 as=0.131 ps=8.82 w=4.38 l=0.5
.ends

.subckt pmos_drain_in m5_0_0# m4_648_1020# a_n6_62# m3_0_0# w_0_0# a_100_62# m5_788_894#
+ m4_0_0# a_0_0# a_162_1100# m3_648_1020#
X0 a_162_1100# a_0_0# a_100_62# w_0_0# sky130_fd_pr__pfet_g5v0d10v5 ad=0.131 pd=8.82 as=2.78 ps=18.8 w=4.38 l=0.5
X1 a_100_62# a_0_0# a_n6_62# w_0_0# sky130_fd_pr__pfet_g5v0d10v5 ad=2.78 pd=18.8 as=0.131 ps=8.82 w=4.38 l=0.5
.ends

.subckt pmos_source_frame_rb m5_0_0# m4_648_1020# a_n6_62# m3_0_0# w_0_0# m5_788_894#
+ m4_0_0# a_0_0# a_162_1100# m3_648_1020#
X0 a_162_1100# a_0_0# w_0_0# w_0_0# sky130_fd_pr__pfet_g5v0d10v5 ad=0.131 pd=8.82 as=6.23 ps=16.3 w=4.38 l=0.5
X1 w_0_0# a_0_0# a_n6_62# w_0_0# sky130_fd_pr__pfet_g5v0d10v5 ad=6.23 pd=16.3 as=0.131 ps=8.82 w=4.38 l=0.5
.ends

.subckt pmos_source_frame_lt m4_n1950_0# m4_648_1020# w_n1150_0# m5_n1950_0# m5_788_894#
+ m3_n1950_0# a_0_0# a_162_1100# m3_648_1020#
X0 a_162_1100# a_0_0# w_n1150_0# w_n1150_0# sky130_fd_pr__pfet_g5v0d10v5 ad=0.131 pd=8.82 as=12.5 ps=32.6 w=4.38 l=0.5
.ends

.subckt pmos_drain_frame_rb m5_0_0# m4_648_1020# a_n6_62# m3_0_0# w_0_0# a_100_62#
+ m5_788_894# m4_0_0# a_0_0# a_162_1100# m3_648_1020#
X0 a_162_1100# a_0_0# a_100_62# w_0_0# sky130_fd_pr__pfet_g5v0d10v5 ad=0.131 pd=8.82 as=2.03 ps=14.1 w=4.38 l=0.5
X1 a_100_62# a_0_0# a_n6_62# w_0_0# sky130_fd_pr__pfet_g5v0d10v5 ad=2.03 pd=14.1 as=0.131 ps=8.82 w=4.38 l=0.5
.ends

.subckt pmos_drain_frame_lt m4_648_1020# w_n1150_0# m3_n950_0# m4_n950_0# m5_n950_0#
+ m5_788_894# a_0_0# a_162_0# a_162_1100# m3_648_1020#
X0 a_162_1100# a_0_0# a_162_0# w_n1150_0# sky130_fd_pr__pfet_g5v0d10v5 ad=0.131 pd=8.82 as=4.05 ps=28.2 w=4.38 l=0.5
.ends

.subckt pmos_waffle_48x48 a_n938_0# a_n1100_n1200# a_50762_0#
Xpmos_source_in_91 a_n938_0# a_n938_0# a_n938_0# a_n938_0# a_50762_0# a_n938_0# a_n938_0#
+ a_n1100_n1200# a_n938_0# a_n938_0# pmos_source_in
Xpmos_source_in_80 a_n938_0# a_n938_0# a_n938_0# a_n938_0# a_50762_0# a_n938_0# a_n938_0#
+ a_n1100_n1200# a_n938_0# a_n938_0# pmos_source_in
Xpmos_source_in_802 a_n938_0# a_n938_0# a_n938_0# a_n938_0# a_50762_0# a_n938_0# a_n938_0#
+ a_n1100_n1200# a_n938_0# a_n938_0# pmos_source_in
Xpmos_source_in_824 a_n938_0# a_n938_0# a_n938_0# a_n938_0# a_50762_0# a_n938_0# a_n938_0#
+ a_n1100_n1200# a_n938_0# a_n938_0# pmos_source_in
Xpmos_source_in_868 a_n938_0# a_n938_0# a_n938_0# a_n938_0# a_50762_0# a_n938_0# a_n938_0#
+ a_n1100_n1200# a_n938_0# a_n938_0# pmos_source_in
Xpmos_source_in_846 a_n938_0# a_n938_0# a_n938_0# a_n938_0# a_50762_0# a_n938_0# a_n938_0#
+ a_n1100_n1200# a_n938_0# a_n938_0# pmos_source_in
Xpmos_source_in_879 a_n938_0# a_n938_0# a_n938_0# a_n938_0# a_50762_0# a_n938_0# a_n938_0#
+ a_n1100_n1200# a_n938_0# a_n938_0# pmos_source_in
Xpmos_source_in_835 a_n938_0# a_n938_0# a_n938_0# a_n938_0# a_50762_0# a_n938_0# a_n938_0#
+ a_n1100_n1200# a_n938_0# a_n938_0# pmos_source_in
Xpmos_source_in_857 a_n938_0# a_n938_0# a_n938_0# a_n938_0# a_50762_0# a_n938_0# a_n938_0#
+ a_n1100_n1200# a_n938_0# a_n938_0# pmos_source_in
Xpmos_source_in_813 a_n938_0# a_n938_0# a_n938_0# a_n938_0# a_50762_0# a_n938_0# a_n938_0#
+ a_n1100_n1200# a_n938_0# a_n938_0# pmos_source_in
Xpmos_drain_in_614 a_50762_0# a_50762_0# a_50762_0# a_50762_0# a_50762_0# a_n938_0#
+ a_50762_0# a_50762_0# a_n1100_n1200# a_50762_0# a_50762_0# pmos_drain_in
Xpmos_drain_in_625 a_50762_0# a_50762_0# a_50762_0# a_50762_0# a_50762_0# a_n938_0#
+ a_50762_0# a_50762_0# a_n1100_n1200# a_50762_0# a_50762_0# pmos_drain_in
Xpmos_drain_in_647 a_50762_0# a_50762_0# a_50762_0# a_50762_0# a_50762_0# a_n938_0#
+ a_50762_0# a_50762_0# a_n1100_n1200# a_50762_0# a_50762_0# pmos_drain_in
Xpmos_drain_in_603 a_50762_0# a_50762_0# a_50762_0# a_50762_0# a_50762_0# a_n938_0#
+ a_50762_0# a_50762_0# a_n1100_n1200# a_50762_0# a_50762_0# pmos_drain_in
Xpmos_drain_in_636 a_50762_0# a_50762_0# a_50762_0# a_50762_0# a_50762_0# a_n938_0#
+ a_50762_0# a_50762_0# a_n1100_n1200# a_50762_0# a_50762_0# pmos_drain_in
Xpmos_drain_in_669 a_50762_0# a_50762_0# a_50762_0# a_50762_0# a_50762_0# a_n938_0#
+ a_50762_0# a_50762_0# a_n1100_n1200# a_50762_0# a_50762_0# pmos_drain_in
Xpmos_drain_in_658 a_50762_0# a_50762_0# a_50762_0# a_50762_0# a_50762_0# a_n938_0#
+ a_50762_0# a_50762_0# a_n1100_n1200# a_50762_0# a_50762_0# pmos_drain_in
Xpmos_source_frame_rb_38 a_n938_0# a_n938_0# a_n938_0# a_n938_0# a_50762_0# a_n938_0#
+ a_n938_0# a_n1100_n1200# a_n938_0# a_n938_0# pmos_source_frame_rb
Xpmos_drain_in_1051 a_50762_0# a_50762_0# a_50762_0# a_50762_0# a_50762_0# a_n938_0#
+ a_50762_0# a_50762_0# a_n1100_n1200# a_50762_0# a_50762_0# pmos_drain_in
Xpmos_source_in_109 a_n938_0# a_n938_0# a_n938_0# a_n938_0# a_50762_0# a_n938_0# a_n938_0#
+ a_n1100_n1200# a_n938_0# a_n938_0# pmos_source_in
Xpmos_source_frame_rb_27 a_n938_0# a_n938_0# a_n938_0# a_n938_0# a_50762_0# a_n938_0#
+ a_n938_0# a_n1100_n1200# a_n938_0# a_n938_0# pmos_source_frame_rb
Xpmos_drain_in_1040 a_50762_0# a_50762_0# a_50762_0# a_50762_0# a_50762_0# a_n938_0#
+ a_50762_0# a_50762_0# a_n1100_n1200# a_50762_0# a_50762_0# pmos_drain_in
Xpmos_source_frame_rb_16 a_n938_0# a_n938_0# a_n938_0# a_n938_0# a_50762_0# a_n938_0#
+ a_n938_0# a_n1100_n1200# a_n938_0# a_n938_0# pmos_source_frame_rb
Xpmos_source_in_643 a_n938_0# a_n938_0# a_n938_0# a_n938_0# a_50762_0# a_n938_0# a_n938_0#
+ a_n1100_n1200# a_n938_0# a_n938_0# pmos_source_in
Xpmos_source_in_621 a_n938_0# a_n938_0# a_n938_0# a_n938_0# a_50762_0# a_n938_0# a_n938_0#
+ a_n1100_n1200# a_n938_0# a_n938_0# pmos_source_in
Xpmos_source_in_610 a_n938_0# a_n938_0# a_n938_0# a_n938_0# a_50762_0# a_n938_0# a_n938_0#
+ a_n1100_n1200# a_n938_0# a_n938_0# pmos_source_in
Xpmos_source_in_632 a_n938_0# a_n938_0# a_n938_0# a_n938_0# a_50762_0# a_n938_0# a_n938_0#
+ a_n1100_n1200# a_n938_0# a_n938_0# pmos_source_in
Xpmos_source_in_687 a_n938_0# a_n938_0# a_n938_0# a_n938_0# a_50762_0# a_n938_0# a_n938_0#
+ a_n1100_n1200# a_n938_0# a_n938_0# pmos_source_in
Xpmos_source_in_665 a_n938_0# a_n938_0# a_n938_0# a_n938_0# a_50762_0# a_n938_0# a_n938_0#
+ a_n1100_n1200# a_n938_0# a_n938_0# pmos_source_in
Xpmos_source_in_698 a_n938_0# a_n938_0# a_n938_0# a_n938_0# a_50762_0# a_n938_0# a_n938_0#
+ a_n1100_n1200# a_n938_0# a_n938_0# pmos_source_in
Xpmos_source_in_654 a_n938_0# a_n938_0# a_n938_0# a_n938_0# a_50762_0# a_n938_0# a_n938_0#
+ a_n1100_n1200# a_n938_0# a_n938_0# pmos_source_in
Xpmos_source_in_676 a_n938_0# a_n938_0# a_n938_0# a_n938_0# a_50762_0# a_n938_0# a_n938_0#
+ a_n1100_n1200# a_n938_0# a_n938_0# pmos_source_in
Xpmos_drain_in_433 a_50762_0# a_50762_0# a_50762_0# a_50762_0# a_50762_0# a_n938_0#
+ a_50762_0# a_50762_0# a_n1100_n1200# a_50762_0# a_50762_0# pmos_drain_in
Xpmos_drain_in_411 a_50762_0# a_50762_0# a_50762_0# a_50762_0# a_50762_0# a_n938_0#
+ a_50762_0# a_50762_0# a_n1100_n1200# a_50762_0# a_50762_0# pmos_drain_in
Xpmos_drain_in_477 a_50762_0# a_50762_0# a_50762_0# a_50762_0# a_50762_0# a_n938_0#
+ a_50762_0# a_50762_0# a_n1100_n1200# a_50762_0# a_50762_0# pmos_drain_in
Xpmos_drain_in_455 a_50762_0# a_50762_0# a_50762_0# a_50762_0# a_50762_0# a_n938_0#
+ a_50762_0# a_50762_0# a_n1100_n1200# a_50762_0# a_50762_0# pmos_drain_in
Xpmos_drain_in_499 a_50762_0# a_50762_0# a_50762_0# a_50762_0# a_50762_0# a_n938_0#
+ a_50762_0# a_50762_0# a_n1100_n1200# a_50762_0# a_50762_0# pmos_drain_in
Xpmos_drain_in_488 a_50762_0# a_50762_0# a_50762_0# a_50762_0# a_50762_0# a_n938_0#
+ a_50762_0# a_50762_0# a_n1100_n1200# a_50762_0# a_50762_0# pmos_drain_in
Xpmos_drain_in_444 a_50762_0# a_50762_0# a_50762_0# a_50762_0# a_50762_0# a_n938_0#
+ a_50762_0# a_50762_0# a_n1100_n1200# a_50762_0# a_50762_0# pmos_drain_in
Xpmos_drain_in_466 a_50762_0# a_50762_0# a_50762_0# a_50762_0# a_50762_0# a_n938_0#
+ a_50762_0# a_50762_0# a_n1100_n1200# a_50762_0# a_50762_0# pmos_drain_in
Xpmos_drain_in_400 a_50762_0# a_50762_0# a_50762_0# a_50762_0# a_50762_0# a_n938_0#
+ a_50762_0# a_50762_0# a_n1100_n1200# a_50762_0# a_50762_0# pmos_drain_in
Xpmos_drain_in_422 a_50762_0# a_50762_0# a_50762_0# a_50762_0# a_50762_0# a_n938_0#
+ a_50762_0# a_50762_0# a_n1100_n1200# a_50762_0# a_50762_0# pmos_drain_in
Xpmos_source_in_462 a_n938_0# a_n938_0# a_n938_0# a_n938_0# a_50762_0# a_n938_0# a_n938_0#
+ a_n1100_n1200# a_n938_0# a_n938_0# pmos_source_in
Xpmos_source_in_484 a_n938_0# a_n938_0# a_n938_0# a_n938_0# a_50762_0# a_n938_0# a_n938_0#
+ a_n1100_n1200# a_n938_0# a_n938_0# pmos_source_in
Xpmos_source_in_440 a_n938_0# a_n938_0# a_n938_0# a_n938_0# a_50762_0# a_n938_0# a_n938_0#
+ a_n1100_n1200# a_n938_0# a_n938_0# pmos_source_in
Xpmos_source_in_473 a_n938_0# a_n938_0# a_n938_0# a_n938_0# a_50762_0# a_n938_0# a_n938_0#
+ a_n1100_n1200# a_n938_0# a_n938_0# pmos_source_in
Xpmos_source_in_495 a_n938_0# a_n938_0# a_n938_0# a_n938_0# a_50762_0# a_n938_0# a_n938_0#
+ a_n1100_n1200# a_n938_0# a_n938_0# pmos_source_in
Xpmos_source_in_451 a_n938_0# a_n938_0# a_n938_0# a_n938_0# a_50762_0# a_n938_0# a_n938_0#
+ a_n1100_n1200# a_n938_0# a_n938_0# pmos_source_in
Xpmos_drain_in_252 a_50762_0# a_50762_0# a_50762_0# a_50762_0# a_50762_0# a_n938_0#
+ a_50762_0# a_50762_0# a_n1100_n1200# a_50762_0# a_50762_0# pmos_drain_in
Xpmos_drain_in_296 a_50762_0# a_50762_0# a_50762_0# a_50762_0# a_50762_0# a_n938_0#
+ a_50762_0# a_50762_0# a_n1100_n1200# a_50762_0# a_50762_0# pmos_drain_in
Xpmos_drain_in_274 a_50762_0# a_50762_0# a_50762_0# a_50762_0# a_50762_0# a_n938_0#
+ a_50762_0# a_50762_0# a_n1100_n1200# a_50762_0# a_50762_0# pmos_drain_in
Xpmos_drain_in_230 a_50762_0# a_50762_0# a_50762_0# a_50762_0# a_50762_0# a_n938_0#
+ a_50762_0# a_50762_0# a_n1100_n1200# a_50762_0# a_50762_0# pmos_drain_in
Xpmos_drain_in_263 a_50762_0# a_50762_0# a_50762_0# a_50762_0# a_50762_0# a_n938_0#
+ a_50762_0# a_50762_0# a_n1100_n1200# a_50762_0# a_50762_0# pmos_drain_in
Xpmos_drain_in_285 a_50762_0# a_50762_0# a_50762_0# a_50762_0# a_50762_0# a_n938_0#
+ a_50762_0# a_50762_0# a_n1100_n1200# a_50762_0# a_50762_0# pmos_drain_in
Xpmos_drain_in_241 a_50762_0# a_50762_0# a_50762_0# a_50762_0# a_50762_0# a_n938_0#
+ a_50762_0# a_50762_0# a_n1100_n1200# a_50762_0# a_50762_0# pmos_drain_in
Xpmos_source_frame_lt_18 a_n938_0# a_n938_0# a_50762_0# a_n938_0# a_n938_0# a_n938_0#
+ a_n1100_n1200# a_n938_0# a_n938_0# pmos_source_frame_lt
Xpmos_source_frame_lt_29 a_n938_0# a_n938_0# a_50762_0# a_n938_0# a_n938_0# a_n938_0#
+ a_n1100_n1200# a_n938_0# a_n938_0# pmos_source_frame_lt
Xpmos_source_in_270 a_n938_0# a_n938_0# a_n938_0# a_n938_0# a_50762_0# a_n938_0# a_n938_0#
+ a_n1100_n1200# a_n938_0# a_n938_0# pmos_source_in
Xpmos_source_in_292 a_n938_0# a_n938_0# a_n938_0# a_n938_0# a_50762_0# a_n938_0# a_n938_0#
+ a_n1100_n1200# a_n938_0# a_n938_0# pmos_source_in
Xpmos_source_in_281 a_n938_0# a_n938_0# a_n938_0# a_n938_0# a_50762_0# a_n938_0# a_n938_0#
+ a_n1100_n1200# a_n938_0# a_n938_0# pmos_source_in
Xpmos_drain_in_20 a_50762_0# a_50762_0# a_50762_0# a_50762_0# a_50762_0# a_n938_0#
+ a_50762_0# a_50762_0# a_n1100_n1200# a_50762_0# a_50762_0# pmos_drain_in
Xpmos_drain_in_42 a_50762_0# a_50762_0# a_50762_0# a_50762_0# a_50762_0# a_n938_0#
+ a_50762_0# a_50762_0# a_n1100_n1200# a_50762_0# a_50762_0# pmos_drain_in
Xpmos_drain_in_64 a_50762_0# a_50762_0# a_50762_0# a_50762_0# a_50762_0# a_n938_0#
+ a_50762_0# a_50762_0# a_n1100_n1200# a_50762_0# a_50762_0# pmos_drain_in
Xpmos_drain_in_86 a_50762_0# a_50762_0# a_50762_0# a_50762_0# a_50762_0# a_n938_0#
+ a_50762_0# a_50762_0# a_n1100_n1200# a_50762_0# a_50762_0# pmos_drain_in
Xpmos_drain_in_75 a_50762_0# a_50762_0# a_50762_0# a_50762_0# a_50762_0# a_n938_0#
+ a_50762_0# a_50762_0# a_n1100_n1200# a_50762_0# a_50762_0# pmos_drain_in
Xpmos_drain_in_97 a_50762_0# a_50762_0# a_50762_0# a_50762_0# a_50762_0# a_n938_0#
+ a_50762_0# a_50762_0# a_n1100_n1200# a_50762_0# a_50762_0# pmos_drain_in
Xpmos_drain_in_53 a_50762_0# a_50762_0# a_50762_0# a_50762_0# a_50762_0# a_n938_0#
+ a_50762_0# a_50762_0# a_n1100_n1200# a_50762_0# a_50762_0# pmos_drain_in
Xpmos_drain_in_31 a_50762_0# a_50762_0# a_50762_0# a_50762_0# a_50762_0# a_n938_0#
+ a_50762_0# a_50762_0# a_n1100_n1200# a_50762_0# a_50762_0# pmos_drain_in
Xpmos_source_in_1005 a_n938_0# a_n938_0# a_n938_0# a_n938_0# a_50762_0# a_n938_0#
+ a_n938_0# a_n1100_n1200# a_n938_0# a_n938_0# pmos_source_in
Xpmos_source_in_1049 a_n938_0# a_n938_0# a_n938_0# a_n938_0# a_50762_0# a_n938_0#
+ a_n938_0# a_n1100_n1200# a_n938_0# a_n938_0# pmos_source_in
Xpmos_source_in_1027 a_n938_0# a_n938_0# a_n938_0# a_n938_0# a_50762_0# a_n938_0#
+ a_n938_0# a_n1100_n1200# a_n938_0# a_n938_0# pmos_source_in
Xpmos_source_in_1016 a_n938_0# a_n938_0# a_n938_0# a_n938_0# a_50762_0# a_n938_0#
+ a_n938_0# a_n1100_n1200# a_n938_0# a_n938_0# pmos_source_in
Xpmos_source_in_1038 a_n938_0# a_n938_0# a_n938_0# a_n938_0# a_50762_0# a_n938_0#
+ a_n938_0# a_n1100_n1200# a_n938_0# a_n938_0# pmos_source_in
Xpmos_drain_in_807 a_50762_0# a_50762_0# a_50762_0# a_50762_0# a_50762_0# a_n938_0#
+ a_50762_0# a_50762_0# a_n1100_n1200# a_50762_0# a_50762_0# pmos_drain_in
Xpmos_drain_in_829 a_50762_0# a_50762_0# a_50762_0# a_50762_0# a_50762_0# a_n938_0#
+ a_50762_0# a_50762_0# a_n1100_n1200# a_50762_0# a_50762_0# pmos_drain_in
Xpmos_drain_in_818 a_50762_0# a_50762_0# a_50762_0# a_50762_0# a_50762_0# a_n938_0#
+ a_50762_0# a_50762_0# a_n1100_n1200# a_50762_0# a_50762_0# pmos_drain_in
Xpmos_source_in_70 a_n938_0# a_n938_0# a_n938_0# a_n938_0# a_50762_0# a_n938_0# a_n938_0#
+ a_n1100_n1200# a_n938_0# a_n938_0# pmos_source_in
Xpmos_source_in_92 a_n938_0# a_n938_0# a_n938_0# a_n938_0# a_50762_0# a_n938_0# a_n938_0#
+ a_n1100_n1200# a_n938_0# a_n938_0# pmos_source_in
Xpmos_source_in_81 a_n938_0# a_n938_0# a_n938_0# a_n938_0# a_50762_0# a_n938_0# a_n938_0#
+ a_n1100_n1200# a_n938_0# a_n938_0# pmos_source_in
Xpmos_source_in_825 a_n938_0# a_n938_0# a_n938_0# a_n938_0# a_50762_0# a_n938_0# a_n938_0#
+ a_n1100_n1200# a_n938_0# a_n938_0# pmos_source_in
Xpmos_source_in_803 a_n938_0# a_n938_0# a_n938_0# a_n938_0# a_50762_0# a_n938_0# a_n938_0#
+ a_n1100_n1200# a_n938_0# a_n938_0# pmos_source_in
Xpmos_source_in_836 a_n938_0# a_n938_0# a_n938_0# a_n938_0# a_50762_0# a_n938_0# a_n938_0#
+ a_n1100_n1200# a_n938_0# a_n938_0# pmos_source_in
Xpmos_source_in_814 a_n938_0# a_n938_0# a_n938_0# a_n938_0# a_50762_0# a_n938_0# a_n938_0#
+ a_n1100_n1200# a_n938_0# a_n938_0# pmos_source_in
Xpmos_source_in_847 a_n938_0# a_n938_0# a_n938_0# a_n938_0# a_50762_0# a_n938_0# a_n938_0#
+ a_n1100_n1200# a_n938_0# a_n938_0# pmos_source_in
Xpmos_source_in_869 a_n938_0# a_n938_0# a_n938_0# a_n938_0# a_50762_0# a_n938_0# a_n938_0#
+ a_n1100_n1200# a_n938_0# a_n938_0# pmos_source_in
Xpmos_source_in_858 a_n938_0# a_n938_0# a_n938_0# a_n938_0# a_50762_0# a_n938_0# a_n938_0#
+ a_n1100_n1200# a_n938_0# a_n938_0# pmos_source_in
Xpmos_drain_in_615 a_50762_0# a_50762_0# a_50762_0# a_50762_0# a_50762_0# a_n938_0#
+ a_50762_0# a_50762_0# a_n1100_n1200# a_50762_0# a_50762_0# pmos_drain_in
Xpmos_drain_in_637 a_50762_0# a_50762_0# a_50762_0# a_50762_0# a_50762_0# a_n938_0#
+ a_50762_0# a_50762_0# a_n1100_n1200# a_50762_0# a_50762_0# pmos_drain_in
Xpmos_drain_in_648 a_50762_0# a_50762_0# a_50762_0# a_50762_0# a_50762_0# a_n938_0#
+ a_50762_0# a_50762_0# a_n1100_n1200# a_50762_0# a_50762_0# pmos_drain_in
Xpmos_drain_in_626 a_50762_0# a_50762_0# a_50762_0# a_50762_0# a_50762_0# a_n938_0#
+ a_50762_0# a_50762_0# a_n1100_n1200# a_50762_0# a_50762_0# pmos_drain_in
Xpmos_drain_in_604 a_50762_0# a_50762_0# a_50762_0# a_50762_0# a_50762_0# a_n938_0#
+ a_50762_0# a_50762_0# a_n1100_n1200# a_50762_0# a_50762_0# pmos_drain_in
Xpmos_drain_in_659 a_50762_0# a_50762_0# a_50762_0# a_50762_0# a_50762_0# a_n938_0#
+ a_50762_0# a_50762_0# a_n1100_n1200# a_50762_0# a_50762_0# pmos_drain_in
Xpmos_drain_in_1030 a_50762_0# a_50762_0# a_50762_0# a_50762_0# a_50762_0# a_n938_0#
+ a_50762_0# a_50762_0# a_n1100_n1200# a_50762_0# a_50762_0# pmos_drain_in
Xpmos_drain_in_1052 a_50762_0# a_50762_0# a_50762_0# a_50762_0# a_50762_0# a_n938_0#
+ a_50762_0# a_50762_0# a_n1100_n1200# a_50762_0# a_50762_0# pmos_drain_in
Xpmos_source_frame_rb_17 a_n938_0# a_n938_0# a_n938_0# a_n938_0# a_50762_0# a_n938_0#
+ a_n938_0# a_n1100_n1200# a_n938_0# a_n938_0# pmos_source_frame_rb
Xpmos_source_frame_rb_39 a_n938_0# a_n938_0# a_n938_0# a_n938_0# a_50762_0# a_n938_0#
+ a_n938_0# a_n1100_n1200# a_n938_0# a_n938_0# pmos_source_frame_rb
Xpmos_drain_in_1041 a_50762_0# a_50762_0# a_50762_0# a_50762_0# a_50762_0# a_n938_0#
+ a_50762_0# a_50762_0# a_n1100_n1200# a_50762_0# a_50762_0# pmos_drain_in
Xpmos_source_frame_rb_28 a_n938_0# a_n938_0# a_n938_0# a_n938_0# a_50762_0# a_n938_0#
+ a_n938_0# a_n1100_n1200# a_n938_0# a_n938_0# pmos_source_frame_rb
Xpmos_source_in_666 a_n938_0# a_n938_0# a_n938_0# a_n938_0# a_50762_0# a_n938_0# a_n938_0#
+ a_n1100_n1200# a_n938_0# a_n938_0# pmos_source_in