* NGSPICE file created from power_stage_2.ext - technology: sky130A

.subckt nmos_source_in m5_0_0# m4_648_1020# a_n6_62# dw_0_0# m3_0_0# w_0_0# m5_788_894#
+ m4_0_0# a_0_0# a_162_1100# m3_648_1020#
X0 a_162_1100# a_0_0# w_0_0# w_0_0# sky130_fd_pr__nfet_g5v0d10v5 ad=0.131 pd=8.82 as=6.86 ps=16.6 w=4.38 l=0.5
X1 w_0_0# a_0_0# a_n6_62# w_0_0# sky130_fd_pr__nfet_g5v0d10v5 ad=6.86 pd=16.6 as=0.131 ps=8.82 w=4.38 l=0.5
.ends

.subckt nmos_drain_in m5_0_0# m4_648_1020# a_n6_62# dw_0_0# m3_0_0# w_0_0# a_100_62#
+ m5_788_894# m4_0_0# a_0_0# a_162_1100# m3_648_1020#
X0 a_162_1100# a_0_0# a_100_62# w_0_0# sky130_fd_pr__nfet_g5v0d10v5 ad=0.131 pd=8.82 as=2.78 ps=18.8 w=4.38 l=0.5
X1 a_100_62# a_0_0# a_n6_62# w_0_0# sky130_fd_pr__nfet_g5v0d10v5 ad=2.78 pd=18.8 as=0.131 ps=8.82 w=4.38 l=0.5
.ends

.subckt nmos_drain_frame_rb m5_0_0# m4_648_1020# a_n6_62# m3_0_0# a_100_62# m5_788_894#
+ m4_0_0# a_0_0# a_162_1100# m3_648_1020# a_1550_0#
X0 a_162_1100# a_0_0# a_100_62# a_1550_0# sky130_fd_pr__nfet_g5v0d10v5 ad=0.131 pd=8.82 as=2.03 ps=14.1 w=4.38 l=0.5
X1 a_100_62# a_0_0# a_n6_62# a_1550_0# sky130_fd_pr__nfet_g5v0d10v5 ad=2.03 pd=14.1 as=0.131 ps=8.82 w=4.38 l=0.5
.ends

.subckt nmos_source_frame_lt m4_n1950_0# m4_648_1020# m5_n1950_0# a_n950_0# m5_788_894#
+ m3_n1950_0# a_0_0# a_162_1100# m3_648_1020#
X0 a_162_1100# a_0_0# a_n950_0# a_n950_0# sky130_fd_pr__nfet_g5v0d10v5 ad=0.131 pd=8.82 as=12.5 ps=32.6 w=4.38 l=0.5
.ends

.subckt nmos_source_frame_rb m5_0_0# m4_648_1020# a_n6_62# m3_0_0# a_100_62# m5_788_894#
+ m4_0_0# a_0_0# a_162_1100# m3_648_1020#
X0 a_162_1100# a_0_0# a_100_62# a_100_62# sky130_fd_pr__nfet_g5v0d10v5 ad=0.131 pd=8.82 as=6.23 ps=16.3 w=4.38 l=0.5
X1 a_100_62# a_0_0# a_n6_62# a_100_62# sky130_fd_pr__nfet_g5v0d10v5 ad=6.23 pd=16.3 as=0.131 ps=8.82 w=4.38 l=0.5
.ends

.subckt nmos_drain_frame_lt m4_648_1020# m3_n950_0# a_n950_0# m4_n950_0# m5_n950_0#
+ m5_788_894# a_0_0# a_162_0# a_162_1100# m3_648_1020#
X0 a_162_1100# a_0_0# a_162_0# a_n950_0# sky130_fd_pr__nfet_g5v0d10v5 ad=0.131 pd=8.82 as=4.05 ps=28.2 w=4.38 l=0.5
.ends

.subckt nmos_waffle_20x20 a_n938_0# a_19962_0# a_n1100_n1200#
Xnmos_source_in_135 a_n938_0# a_n938_0# a_n938_0# dw_n6950_n7050# a_n938_0# a_19962_0#
+ a_n938_0# a_n938_0# a_n1100_n1200# a_n938_0# a_n938_0# nmos_source_in
Xnmos_source_in_146 a_n938_0# a_n938_0# a_n938_0# dw_n6950_n7050# a_n938_0# a_19962_0#
+ a_n938_0# a_n938_0# a_n1100_n1200# a_n938_0# a_n938_0# nmos_source_in
Xnmos_source_in_102 a_n938_0# a_n938_0# a_n938_0# dw_n6950_n7050# a_n938_0# a_19962_0#
+ a_n938_0# a_n938_0# a_n1100_n1200# a_n938_0# a_n938_0# nmos_source_in
Xnmos_source_in_157 a_n938_0# a_n938_0# a_n938_0# dw_n6950_n7050# a_n938_0# a_19962_0#
+ a_n938_0# a_n938_0# a_n1100_n1200# a_n938_0# a_n938_0# nmos_source_in
Xnmos_source_in_113 a_n938_0# a_n938_0# a_n938_0# dw_n6950_n7050# a_n938_0# a_19962_0#
+ a_n938_0# a_n938_0# a_n1100_n1200# a_n938_0# a_n938_0# nmos_source_in
Xnmos_source_in_124 a_n938_0# a_n938_0# a_n938_0# dw_n6950_n7050# a_n938_0# a_19962_0#
+ a_n938_0# a_n938_0# a_n1100_n1200# a_n938_0# a_n938_0# nmos_source_in
Xnmos_source_in_28 a_n938_0# a_n938_0# a_n938_0# dw_n6950_n7050# a_n938_0# a_19962_0#
+ a_n938_0# a_n938_0# a_n1100_n1200# a_n938_0# a_n938_0# nmos_source_in
Xnmos_source_in_17 a_n938_0# a_n938_0# a_n938_0# dw_n6950_n7050# a_n938_0# a_19962_0#
+ a_n938_0# a_n938_0# a_n1100_n1200# a_n938_0# a_n938_0# nmos_source_in
Xnmos_source_in_39 a_n938_0# a_n938_0# a_n938_0# dw_n6950_n7050# a_n938_0# a_19962_0#
+ a_n938_0# a_n938_0# a_n1100_n1200# a_n938_0# a_n938_0# nmos_source_in
Xnmos_source_in_8 a_n938_0# a_n938_0# a_n938_0# dw_n6950_n7050# a_n938_0# a_19962_0#
+ a_n938_0# a_n938_0# a_n1100_n1200# a_n938_0# a_n938_0# nmos_source_in
Xnmos_source_in_103 a_n938_0# a_n938_0# a_n938_0# dw_n6950_n7050# a_n938_0# a_19962_0#
+ a_n938_0# a_n938_0# a_n1100_n1200# a_n938_0# a_n938_0# nmos_source_in
Xnmos_source_in_125 a_n938_0# a_n938_0# a_n938_0# dw_n6950_n7050# a_n938_0# a_19962_0#
+ a_n938_0# a_n938_0# a_n1100_n1200# a_n938_0# a_n938_0# nmos_source_in
Xnmos_source_in_136 a_n938_0# a_n938_0# a_n938_0# dw_n6950_n7050# a_n938_0# a_19962_0#
+ a_n938_0# a_n938_0# a_n1100_n1200# a_n938_0# a_n938_0# nmos_source_in
Xnmos_source_in_147 a_n938_0# a_n938_0# a_n938_0# dw_n6950_n7050# a_n938_0# a_19962_0#
+ a_n938_0# a_n938_0# a_n1100_n1200# a_n938_0# a_n938_0# nmos_source_in
Xnmos_source_in_114 a_n938_0# a_n938_0# a_n938_0# dw_n6950_n7050# a_n938_0# a_19962_0#
+ a_n938_0# a_n938_0# a_n1100_n1200# a_n938_0# a_n938_0# nmos_source_in
Xnmos_source_in_158 a_n938_0# a_n938_0# a_n938_0# dw_n6950_n7050# a_n938_0# a_19962_0#
+ a_n938_0# a_n938_0# a_n1100_n1200# a_n938_0# a_n938_0# nmos_source_in
Xnmos_source_in_18 a_n938_0# a_n938_0# a_n938_0# dw_n6950_n7050# a_n938_0# a_19962_0#
+ a_n938_0# a_n938_0# a_n1100_n1200# a_n938_0# a_n938_0# nmos_source_in
Xnmos_source_in_29 a_n938_0# a_n938_0# a_n938_0# dw_n6950_n7050# a_n938_0# a_19962_0#
+ a_n938_0# a_n938_0# a_n1100_n1200# a_n938_0# a_n938_0# nmos_source_in
Xnmos_source_in_9 a_n938_0# a_n938_0# a_n938_0# dw_n6950_n7050# a_n938_0# a_19962_0#
+ a_n938_0# a_n938_0# a_n1100_n1200# a_n938_0# a_n938_0# nmos_source_in
Xnmos_source_in_126 a_n938_0# a_n938_0# a_n938_0# dw_n6950_n7050# a_n938_0# a_19962_0#
+ a_n938_0# a_n938_0# a_n1100_n1200# a_n938_0# a_n938_0# nmos_source_in
Xnmos_source_in_137 a_n938_0# a_n938_0# a_n938_0# dw_n6950_n7050# a_n938_0# a_19962_0#
+ a_n938_0# a_n938_0# a_n1100_n1200# a_n938_0# a_n938_0# nmos_source_in
Xnmos_source_in_148 a_n938_0# a_n938_0# a_n938_0# dw_n6950_n7050# a_n938_0# a_19962_0#
+ a_n938_0# a_n938_0# a_n1100_n1200# a_n938_0# a_n938_0# nmos_source_in
Xnmos_source_in_104 a_n938_0# a_n938_0# a_n938_0# dw_n6950_n7050# a_n938_0# a_19962_0#
+ a_n938_0# a_n938_0# a_n1100_n1200# a_n938_0# a_n938_0# nmos_source_in
Xnmos_source_in_115 a_n938_0# a_n938_0# a_n938_0# dw_n6950_n7050# a_n938_0# a_19962_0#
+ a_n938_0# a_n938_0# a_n1100_n1200# a_n938_0# a_n938_0# nmos_source_in
Xnmos_source_in_159 a_n938_0# a_n938_0# a_n938_0# dw_n6950_n7050# a_n938_0# a_19962_0#
+ a_n938_0# a_n938_0# a_n1100_n1200# a_n938_0# a_n938_0# nmos_source_in
Xnmos_source_in_19 a_n938_0# a_n938_0# a_n938_0# dw_n6950_n7050# a_n938_0# a_19962_0#
+ a_n938_0# a_n938_0# a_n1100_n1200# a_n938_0# a_n938_0# nmos_source_in
Xnmos_source_in_127 a_n938_0# a_n938_0# a_n938_0# dw_n6950_n7050# a_n938_0# a_19962_0#
+ a_n938_0# a_n938_0# a_n1100_n1200# a_n938_0# a_n938_0# nmos_source_in
Xnmos_source_in_138 a_n938_0# a_n938_0# a_n938_0# dw_n6950_n7050# a_n938_0# a_19962_0#
+ a_n938_0# a_n938_0# a_n1100_n1200# a_n938_0# a_n938_0# nmos_source_in
Xnmos_source_in_149 a_n938_0# a_n938_0# a_n938_0# dw_n6950_n7050# a_n938_0# a_19962_0#
+ a_n938_0# a_n938_0# a_n1100_n1200# a_n938_0# a_n938_0# nmos_source_in
Xnmos_source_in_105 a_n938_0# a_n938_0# a_n938_0# dw_n6950_n7050# a_n938_0# a_19962_0#
+ a_n938_0# a_n938_0# a_n1100_n1200# a_n938_0# a_n938_0# nmos_source_in
Xnmos_source_in_116 a_n938_0# a_n938_0# a_n938_0# dw_n6950_n7050# a_n938_0# a_19962_0#
+ a_n938_0# a_n938_0# a_n1100_n1200# a_n938_0# a_n938_0# nmos_source_in
Xnmos_drain_in_160 a_19962_0# a_19962_0# a_19962_0# dw_n6950_n7050# a_19962_0# a_19962_0#
+ a_n938_0# a_19962_0# a_19962_0# a_n1100_n1200# a_19962_0# a_19962_0# nmos_drain_in
Xnmos_source_in_117 a_n938_0# a_n938_0# a_n938_0# dw_n6950_n7050# a_n938_0# a_19962_0#
+ a_n938_0# a_n938_0# a_n1100_n1200# a_n938_0# a_n938_0# nmos_source_in
Xnmos_source_in_128 a_n938_0# a_n938_0# a_n938_0# dw_n6950_n7050# a_n938_0# a_19962_0#
+ a_n938_0# a_n938_0# a_n1100_n1200# a_n938_0# a_n938_0# nmos_source_in
Xnmos_source_in_139 a_n938_0# a_n938_0# a_n938_0# dw_n6950_n7050# a_n938_0# a_19962_0#
+ a_n938_0# a_n938_0# a_n1100_n1200# a_n938_0# a_n938_0# nmos_source_in
Xnmos_source_in_106 a_n938_0# a_n938_0# a_n938_0# dw_n6950_n7050# a_n938_0# a_19962_0#
+ a_n938_0# a_n938_0# a_n1100_n1200# a_n938_0# a_n938_0# nmos_source_in
Xnmos_drain_in_161 a_19962_0# a_19962_0# a_19962_0# dw_n6950_n7050# a_19962_0# a_19962_0#
+ a_n938_0# a_19962_0# a_19962_0# a_n1100_n1200# a_19962_0# a_19962_0# nmos_drain_in
Xnmos_drain_in_150 a_19962_0# a_19962_0# a_19962_0# dw_n6950_n7050# a_19962_0# a_19962_0#
+ a_n938_0# a_19962_0# a_19962_0# a_n1100_n1200# a_19962_0# a_19962_0# nmos_drain_in
Xnmos_drain_frame_rb_0 a_19962_0# a_19962_0# a_19962_0# a_19962_0# a_n938_0# a_19962_0#
+ a_19962_0# a_n1100_n1200# a_19962_0# a_19962_0# a_19962_0# nmos_drain_frame_rb
Xnmos_source_in_118 a_n938_0# a_n938_0# a_n938_0# dw_n6950_n7050# a_n938_0# a_19962_0#
+ a_n938_0# a_n938_0# a_n1100_n1200# a_n938_0# a_n938_0# nmos_source_in
Xnmos_source_in_129 a_n938_0# a_n938_0# a_n938_0# dw_n6950_n7050# a_n938_0# a_19962_0#
+ a_n938_0# a_n938_0# a_n1100_n1200# a_n938_0# a_n938_0# nmos_source_in
Xnmos_source_in_107 a_n938_0# a_n938_0# a_n938_0# dw_n6950_n7050# a_n938_0# a_19962_0#
+ a_n938_0# a_n938_0# a_n1100_n1200# a_n938_0# a_n938_0# nmos_source_in
Xnmos_drain_in_140 a_19962_0# a_19962_0# a_19962_0# dw_n6950_n7050# a_19962_0# a_19962_0#
+ a_n938_0# a_19962_0# a_19962_0# a_n1100_n1200# a_19962_0# a_19962_0# nmos_drain_in
Xnmos_drain_in_151 a_19962_0# a_19962_0# a_19962_0# dw_n6950_n7050# a_19962_0# a_19962_0#
+ a_n938_0# a_19962_0# a_19962_0# a_n1100_n1200# a_19962_0# a_19962_0# nmos_drain_in
Xnmos_drain_frame_rb_1 a_19962_0# a_19962_0# a_19962_0# a_19962_0# a_n938_0# a_19962_0#
+ a_19962_0# a_n1100_n1200# a_19962_0# a_19962_0# a_19962_0# nmos_drain_frame_rb
Xnmos_source_in_108 a_n938_0# a_n938_0# a_n938_0# dw_n6950_n7050# a_n938_0# a_19962_0#
+ a_n938_0# a_n938_0# a_n1100_n1200# a_n938_0# a_n938_0# nmos_source_in
Xnmos_source_in_119 a_n938_0# a_n938_0# a_n938_0# dw_n6950_n7050# a_n938_0# a_19962_0#
+ a_n938_0# a_n938_0# a_n1100_n1200# a_n938_0# a_n938_0# nmos_source_in
Xnmos_drain_in_152 a_19962_0# a_19962_0# a_19962_0# dw_n6950_n7050# a_19962_0# a_19962_0#
+ a_n938_0# a_19962_0# a_19962_0# a_n1100_n1200# a_19962_0# a_19962_0# nmos_drain_in
Xnmos_drain_in_130 a_19962_0# a_19962_0# a_19962_0# dw_n6950_n7050# a_19962_0# a_19962_0#
+ a_n938_0# a_19962_0# a_19962_0# a_n1100_n1200# a_19962_0# a_19962_0# nmos_drain_in
Xnmos_drain_in_141 a_19962_0# a_19962_0# a_19962_0# dw_n6950_n7050# a_19962_0# a_19962_0#
+ a_n938_0# a_19962_0# a_19962_0# a_n1100_n1200# a_19962_0# a_19962_0# nmos_drain_in
Xnmos_source_frame_lt_10 a_n938_0# a_n938_0# a_n938_0# a_19962_0# a_n938_0# a_n938_0#
+ a_n1100_n1200# a_n938_0# a_n938_0# nmos_source_frame_lt
Xnmos_drain_frame_rb_2 a_19962_0# a_19962_0# a_19962_0# a_19962_0# a_n938_0# a_19962_0#
+ a_19962_0# a_n1100_n1200# a_19962_0# a_19962_0# a_19962_0# nmos_drain_frame_rb
Xnmos_source_in_109 a_n938_0# a_n938_0# a_n938_0# dw_n6950_n7050# a_n938_0# a_19962_0#
+ a_n938_0# a_n938_0# a_n1100_n1200# a_n938_0# a_n938_0# nmos_source_in
Xnmos_drain_in_153 a_19962_0# a_19962_0# a_19962_0# dw_n6950_n7050# a_19962_0# a_19962_0#
+ a_n938_0# a_19962_0# a_19962_0# a_n1100_n1200# a_19962_0# a_19962_0# nmos_drain_in
Xnmos_drain_in_120 a_19962_0# a_19962_0# a_19962_0# dw_n6950_n7050# a_19962_0# a_19962_0#
+ a_n938_0# a_19962_0# a_19962_0# a_n1100_n1200# a_19962_0# a_19962_0# nmos_drain_in
Xnmos_source_frame_lt_11 a_n938_0# a_n938_0# a_n938_0# a_19962_0# a_n938_0# a_n938_0#
+ a_n1100_n1200# a_n938_0# a_n938_0# nmos_source_frame_lt
Xnmos_drain_in_131 a_19962_0# a_19962_0# a_19962_0# dw_n6950_n7050# a_19962_0# a_19962_0#
+ a_n938_0# a_19962_0# a_19962_0# a_n1100_n1200# a_19962_0# a_19962_0# nmos_drain_in
Xnmos_drain_in_142 a_19962_0# a_19962_0# a_19962_0# dw_n6950_n7050# a_19962_0# a_19962_0#
+ a_n938_0# a_19962_0# a_19962_0# a_n1100_n1200# a_19962_0# a_19962_0# nmos_drain_in
Xnmos_source_frame_rb_10 a_n938_0# a_n938_0# a_n938_0# a_n938_0# a_19962_0# a_n938_0#
+ a_n938_0# a_n1100_n1200# a_n938_0# a_n938_0# nmos_source_frame_rb
Xnmos_drain_frame_rb_3 a_19962_0# a_19962_0# a_19962_0# a_19962_0# a_n938_0# a_19962_0#
+ a_19962_0# a_n1100_n1200# a_19962_0# a_19962_0# a_19962_0# nmos_drain_frame_rb
Xnmos_drain_in_154 a_19962_0# a_19962_0# a_19962_0# dw_n6950_n7050# a_19962_0# a_19962_0#
+ a_n938_0# a_19962_0# a_19962_0# a_n1100_n1200# a_19962_0# a_19962_0# nmos_drain_in
Xnmos_drain_in_110 a_19962_0# a_19962_0# a_19962_0# dw_n6950_n7050# a_19962_0# a_19962_0#
+ a_n938_0# a_19962_0# a_19962_0# a_n1100_n1200# a_19962_0# a_19962_0# nmos_drain_in
Xnmos_drain_in_121 a_19962_0# a_19962_0# a_19962_0# dw_n6950_n7050# a_19962_0# a_19962_0#
+ a_n938_0# a_19962_0# a_19962_0# a_n1100_n1200# a_19962_0# a_19962_0# nmos_drain_in
Xnmos_drain_in_132 a_19962_0# a_19962_0# a_19962_0# dw_n6950_n7050# a_19962_0# a_19962_0#
+ a_n938_0# a_19962_0# a_19962_0# a_n1100_n1200# a_19962_0# a_19962_0# nmos_drain_in
Xnmos_source_frame_lt_12 a_n938_0# a_n938_0# a_n938_0# a_19962_0# a_n938_0# a_n938_0#
+ a_n1100_n1200# a_n938_0# a_n938_0# nmos_source_frame_lt
Xnmos_drain_in_143 a_19962_0# a_19962_0# a_19962_0# dw_n6950_n7050# a_19962_0# a_19962_0#
+ a_n938_0# a_19962_0# a_19962_0# a_n1100_n1200# a_19962_0# a_19962_0# nmos_drain_in
Xnmos_source_frame_rb_11 a_n938_0# a_n938_0# a_n938_0# a_n938_0# a_19962_0# a_n938_0#
+ a_n938_0# a_n1100_n1200# a_n938_0# a_n938_0# nmos_source_frame_rb
Xnmos_drain_frame_rb_4 a_19962_0# a_19962_0# a_19962_0# a_19962_0# a_n938_0# a_19962_0#
+ a_19962_0# a_n1100_n1200# a_19962_0# a_19962_0# a_19962_0# nmos_drain_frame_rb
Xnmos_drain_in_144 a_19962_0# a_19962_0# a_19962_0# dw_n6950_n7050# a_19962_0# a_19962_0#
+ a_n938_0# a_19962_0# a_19962_0# a_n1100_n1200# a_19962_0# a_19962_0# nmos_drain_in
Xnmos_drain_in_100 a_19962_0# a_19962_0# a_19962_0# dw_n6950_n7050# a_19962_0# a_19962_0#
+ a_n938_0# a_19962_0# a_19962_0# a_n1100_n1200# a_19962_0# a_19962_0# nmos_drain_in
Xnmos_drain_in_155 a_19962_0# a_19962_0# a_19962_0# dw_n6950_n7050# a_19962_0# a_19962_0#
+ a_n938_0# a_19962_0# a_19962_0# a_n1100_n1200# a_19962_0# a_19962_0# nmos_drain_in
Xnmos_drain_in_111 a_19962_0# a_19962_0# a_19962_0# dw_n6950_n7050# a_19962_0# a_19962_0#
+ a_n938_0# a_19962_0# a_19962_0# a_n1100_n1200# a_19962_0# a_19962_0# nmos_drain_in
Xnmos_drain_in_122 a_19962_0# a_19962_0# a_19962_0# dw_n6950_n7050# a_19962_0# a_19962_0#
+ a_n938_0# a_19962_0# a_19962_0# a_n1100_n1200# a_19962_0# a_19962_0# nmos_drain_in
Xnmos_source_frame_lt_13 a_n938_0# a_n938_0# a_n938_0# a_19962_0# a_n938_0# a_n938_0#
+ a_n1100_n1200# a_n938_0# a_n938_0# nmos_source_frame_lt
Xnmos_drain_in_133 a_19962_0# a_19962_0# a_19962_0# dw_n6950_n7050# a_19962_0# a_19962_0#
+ a_n938_0# a_19962_0# a_19962_0# a_n1100_n1200# a_19962_0# a_19962_0# nmos_drain_in
Xnmos_source_frame_rb_12 a_n938_0# a_n938_0# a_n938_0# a_n938_0# a_19962_0# a_n938_0#
+ a_n938_0# a_n1100_n1200# a_n938_0# a_n938_0# nmos_source_frame_rb
Xnmos_drain_frame_rb_5 a_19962_0# a_19962_0# a_19962_0# a_19962_0# a_n938_0# a_19962_0#
+ a_19962_0# a_n1100_n1200# a_19962_0# a_19962_0# a_19962_0# nmos_drain_frame_rb
Xnmos_source_frame_lt_14 a_n938_0# a_n938_0# a_n938_0# a_19962_0# a_n938_0# a_n938_0#
+ a_n1100_n1200# a_n938_0# a_n938_0# nmos_source_frame_lt
Xnmos_drain_in_145 a_19962_0# a_19962_0# a_19962_0# dw_n6950_n7050# a_19962_0# a_19962_0#
+ a_n938_0# a_19962_0# a_19962_0# a_n1100_n1200# a_19962_0# a_19962_0# nmos_drain_in
Xnmos_drain_in_101 a_19962_0# a_19962_0# a_19962_0# dw_n6950_n7050# a_19962_0# a_19962_0#
+ a_n938_0# a_19962_0# a_19962_0# a_n1100_n1200# a_19962_0# a_19962_0# nmos_drain_in
Xnmos_drain_in_156 a_19962_0# a_19962_0# a_19962_0# dw_n6950_n7050# a_19962_0# a_19962_0#
+ a_n938_0# a_19962_0# a_19962_0# a_n1100_n1200# a_19962_0# a_19962_0# nmos_drain_in
Xnmos_drain_in_112 a_19962_0# a_19962_0# a_19962_0# dw_n6950_n7050# a_19962_0# a_19962_0#
+ a_n938_0# a_19962_0# a_19962_0# a_n1100_n1200# a_19962_0# a_19962_0# nmos_drain_in
Xnmos_drain_in_123 a_19962_0# a_19962_0# a_19962_0# dw_n6950_n7050# a_19962_0# a_19962_0#
+ a_n938_0# a_19962_0# a_19962_0# a_n1100_n1200# a_19962_0# a_19962_0# nmos_drain_in
Xnmos_drain_in_134 a_19962_0# a_19962_0# a_19962_0# dw_n6950_n7050# a_19962_0# a_19962_0#
+ a_n938_0# a_19962_0# a_19962_0# a_n1100_n1200# a_19962_0# a_19962_0# nmos_drain_in
Xnmos_source_frame_rb_13 a_n938_0# a_n938_0# a_n938_0# a_n938_0# a_19962_0# a_n938_0#
+ a_n938_0# a_n1100_n1200# a_n938_0# a_n938_0# nmos_source_frame_rb
Xnmos_drain_frame_rb_6 a_19962_0# a_19962_0# a_19962_0# a_19962_0# a_n938_0# a_19962_0#
+ a_19962_0# a_n1100_n1200# a_19962_0# a_19962_0# a_19962_0# nmos_drain_frame_rb
Xnmos_drain_frame_lt_0 a_19962_0# a_19962_0# a_19962_0# a_19962_0# a_19962_0# a_19962_0#
+ a_n1100_n1200# a_n938_0# a_19962_0# a_19962_0# nmos_drain_frame_lt
Xnmos_drain_in_135 a_19962_0# a_19962_0# a_19962_0# dw_n6950_n7050# a_19962_0# a_19962_0#
+ a_n938_0# a_19962_0# a_19962_0# a_n1100_n1200# a_19962_0# a_19962_0# nmos_drain_in
Xnmos_drain_in_102 a_19962_0# a_19962_0# a_19962_0# dw_n6950_n7050# a_19962_0# a_19962_0#
+ a_n938_0# a_19962_0# a_19962_0# a_n1100_n1200# a_19962_0# a_19962_0# nmos_drain_in
Xnmos_drain_in_146 a_19962_0# a_19962_0# a_19962_0# dw_n6950_n7050# a_19962_0# a_19962_0#
+ a_n938_0# a_19962_0# a_19962_0# a_n1100_n1200# a_19962_0# a_19962_0# nmos_drain_in
Xnmos_drain_in_157 a_19962_0# a_19962_0# a_19962_0# dw_n6950_n7050# a_19962_0# a_19962_0#
+ a_n938_0# a_19962_0# a_19962_0# a_n1100_n1200# a_19962_0# a_19962_0# nmos_drain_in
Xnmos_drain_in_113 a_19962_0# a_19962_0# a_19962_0# dw_n6950_n7050# a_19962_0# a_19962_0#
+ a_n938_0# a_19962_0# a_19962_0# a_n1100_n1200# a_19962_0# a_19962_0# nmos_drain_in
Xnmos_source_frame_lt_15 a_n938_0# a_n938_0# a_n938_0# a_19962_0# a_n938_0# a_n938_0#
+ a_n1100_n1200# a_n938_0# a_n938_0# nmos_source_frame_lt
Xnmos_drain_in_124 a_19962_0# a_19962_0# a_19962_0# dw_n6950_n7050# a_19962_0# a_19962_0#
+ a_n938_0# a_19962_0# a_19962_0# a_n1100_n1200# a_19962_0# a_19962_0# nmos_drain_in
Xnmos_source_frame_rb_14 a_n938_0# a_n938_0# a_n938_0# a_n938_0# a_19962_0# a_n938_0#
+ a_n938_0# a_n1100_n1200# a_n938_0# a_n938_0# nmos_source_frame_rb
Xnmos_drain_frame_rb_7 a_19962_0# a_19962_0# a_19962_0# a_19962_0# a_n938_0# a_19962_0#
+ a_19962_0# a_n1100_n1200# a_19962_0# a_19962_0# a_19962_0# nmos_drain_frame_rb
Xnmos_drain_frame_lt_1 a_19962_0# a_19962_0# a_19962_0# a_19962_0# a_19962_0# a_19962_0#
+ a_n1100_n1200# a_n938_0# a_19962_0# a_19962_0# nmos_drain_frame_lt
Xnmos_source_frame_lt_16 a_n938_0# a_n938_0# a_n938_0# a_19962_0# a_n938_0# a_n938_0#
+ a_n1100_n1200# a_n938_0# a_n938_0# nmos_source_frame_lt
Xnmos_drain_in_136 a_19962_0# a_19962_0# a_19962_0# dw_n6950_n7050# a_19962_0# a_19962_0#
+ a_n938_0# a_19962_0# a_19962_0# a_n1100_n1200# a_19962_0# a_19962_0# nmos_drain_in
Xnmos_drain_in_103 a_19962_0# a_19962_0# a_19962_0# dw_n6950_n7050# a_19962_0# a_19962_0#
+ a_n938_0# a_19962_0# a_19962_0# a_n1100_n1200# a_19962_0# a_19962_0# nmos_drain_in
Xnmos_drain_in_147 a_19962_0# a_19962_0# a_19962_0# dw_n6950_n7050# a_19962_0# a_19962_0#
+ a_n938_0# a_19962_0# a_19962_0# a_n1100_n1200# a_19962_0# a_19962_0# nmos_drain_in
Xnmos_drain_in_158 a_19962_0# a_19962_0# a_19962_0# dw_n6950_n7050# a_19962_0# a_19962_0#
+ a_n938_0# a_19962_0# a_19962_0# a_n1100_n1200# a_19962_0# a_19962_0# nmos_drain_in
Xnmos_drain_in_114 a_19962_0# a_19962_0# a_19962_0# dw_n6950_n7050# a_19962_0# a_19962_0#
+ a_n938_0# a_19962_0# a_19962_0# a_n1100_n1200# a_19962_0# a_19962_0# nmos_drain_in
Xnmos_drain_in_125 a_19962_0# a_19962_0# a_19962_0# dw_n6950_n7050# a_19962_0# a_19962_0#
+ a_n938_0# a_19962_0# a_19962_0# a_n1100_n1200# a_19962_0# a_19962_0# nmos_drain_in
Xnmos_drain_in_90 a_19962_0# a_19962_0# a_19962_0# dw_n6950_n7050# a_19962_0# a_19962_0#
+ a_n938_0# a_19962_0# a_19962_0# a_n1100_n1200# a_19962_0# a_19962_0# nmos_drain_in
Xnmos_source_frame_rb_15 a_n938_0# a_n938_0# a_n938_0# a_n938_0# a_19962_0# a_n938_0#
+ a_n938_0# a_n1100_n1200# a_n938_0# a_n938_0# nmos_source_frame_rb
Xnmos_drain_frame_lt_2 a_19962_0# a_19962_0# a_19962_0# a_19962_0# a_19962_0# a_19962_0#
+ a_n1100_n1200# a_n938_0# a_19962_0# a_19962_0# nmos_drain_frame_lt
Xnmos_drain_frame_rb_8 a_19962_0# a_19962_0# a_19962_0# a_19962_0# a_n938_0# a_19962_0#
+ a_19962_0# a_n1100_n1200# a_19962_0# a_19962_0# a_19962_0# nmos_drain_frame_rb
Xnmos_drain_in_126 a_19962_0# a_19962_0# a_19962_0# dw_n6950_n7050# a_19962_0# a_19962_0#
+ a_n938_0# a_19962_0# a_19962_0# a_n1100_n1200# a_19962_0# a_19962_0# nmos_drain_in
Xnmos_drain_in_137 a_19962_0# a_19962_0# a_19962_0# dw_n6950_n7050# a_19962_0# a_19962_0#
+ a_n938_0# a_19962_0# a_19962_0# a_n1100_n1200# a_19962_0# a_19962_0# nmos_drain_in
Xnmos_drain_in_148 a_19962_0# a_19962_0# a_19962_0# dw_n6950_n7050# a_19962_0# a_19962_0#
+ a_n938_0# a_19962_0# a_19962_0# a_n1100_n1200# a_19962_0# a_19962_0# nmos_drain_in
Xnmos_drain_in_104 a_19962_0# a_19962_0# a_19962_0# dw_n6950_n7050# a_19962_0# a_19962_0#
+ a_n938_0# a_19962_0# a_19962_0# a_n1100_n1200# a_19962_0# a_19962_0# nmos_drain_in
Xnmos_drain_in_159 a_19962_0# a_19962_0# a_19962_0# dw_n6950_n7050# a_19962_0# a_19962_0#
+ a_n938_0# a_19962_0# a_19962_0# a_n1100_n1200# a_19962_0# a_19962_0# nmos_drain_in
Xnmos_drain_in_115 a_19962_0# a_19962_0# a_19962_0# dw_n6950_n7050# a_19962_0# a_19962_0#
+ a_n938_0# a_19962_0# a_19962_0# a_n1100_n1200# a_19962_0# a_19962_0# nmos_drain_in
Xnmos_source_frame_lt_17 a_n938_0# a_n938_0# a_n938_0# a_19962_0# a_n938_0# a_n938_0#
+ a_n1100_n1200# a_n938_0# a_n938_0# nmos_source_frame_lt
Xnmos_drain_in_0 a_19962_0# a_19962_0# a_19962_0# dw_n6950_n7050# a_19962_0# a_19962_0#
+ a_n938_0# a_19962_0# a_19962_0# a_n1100_n1200# a_19962_0# a_19962_0# nmos_drain_in
Xnmos_drain_in_91 a_19962_0# a_19962_0# a_19962_0# dw_n6950_n7050# a_19962_0# a_19962_0#
+ a_n938_0# a_19962_0# a_19962_0# a_n1100_n1200# a_19962_0# a_19962_0# nmos_drain_in
Xnmos_drain_in_80 a_19962_0# a_19962_0# a_19962_0# dw_n6950_n7050# a_19962_0# a_19962_0#
+ a_n938_0# a_19962_0# a_19962_0# a_n1100_n1200# a_19962_0# a_19962_0# nmos_drain_in
Xnmos_source_frame_rb_16 a_n938_0# a_n938_0# a_n938_0# a_n938_0# a_19962_0# a_n938_0#
+ a_n938_0# a_n1100_n1200# a_n938_0# a_n938_0# nmos_source_frame_rb
Xnmos_drain_frame_rb_9 a_19962_0# a_19962_0# a_19962_0# a_19962_0# a_n938_0# a_19962_0#
+ a_19962_0# a_n1100_n1200# a_19962_0# a_19962_0# a_19962_0# nmos_drain_frame_rb
Xnmos_drain_frame_lt_3 a_19962_0# a_19962_0# a_19962_0# a_19962_0# a_19962_0# a_19962_0#
+ a_n1100_n1200# a_n938_0# a_19962_0# a_19962_0# nmos_drain_frame_lt
Xnmos_drain_in_127 a_19962_0# a_19962_0# a_19962_0# dw_n6950_n7050# a_19962_0# a_19962_0#
+ a_n938_0# a_19962_0# a_19962_0# a_n1100_n1200# a_19962_0# a_19962_0# nmos_drain_in
Xnmos_drain_in_138 a_19962_0# a_19962_0# a_19962_0# dw_n6950_n7050# a_19962_0# a_19962_0#
+ a_n938_0# a_19962_0# a_19962_0# a_n1100_n1200# a_19962_0# a_19962_0# nmos_drain_in
Xnmos_drain_in_105 a_19962_0# a_19962_0# a_19962_0# dw_n6950_n7050# a_19962_0# a_19962_0#
+ a_n938_0# a_19962_0# a_19962_0# a_n1100_n1200# a_19962_0# a_19962_0# nmos_drain_in
Xnmos_drain_in_149 a_19962_0# a_19962_0# a_19962_0# dw_n6950_n7050# a_19962_0# a_19962_0#
+ a_n938_0# a_19962_0# a_19962_0# a_n1100_n1200# a_19962_0# a_19962_0# nmos_drain_in
Xnmos_drain_in_116 a_19962_0# a_19962_0# a_19962_0# dw_n6950_n7050# a_19962_0# a_19962_0#
+ a_n938_0# a_19962_0# a_19962_0# a_n1100_n1200# a_19962_0# a_19962_0# nmos_drain_in
Xnmos_drain_in_1 a_19962_0# a_19962_0# a_19962_0# dw_n6950_n7050# a_19962_0# a_19962_0#
+ a_n938_0# a_19962_0# a_19962_0# a_n1100_n1200# a_19962_0# a_19962_0# nmos_drain_in
Xnmos_drain_in_81 a_19962_0# a_19962_0# a_19962_0# dw_n6950_n7050# a_19962_0# a_19962_0#
+ a_n938_0# a_19962_0# a_19962_0# a_n1100_n1200# a_19962_0# a_19962_0# nmos_drain_in
Xnmos_drain_in_92 a_19962_0# a_19962_0# a_19962_0# dw_n6950_n7050# a_19962_0# a_19962_0#
+ a_n938_0# a_19962_0# a_19962_0# a_n1100_n1200# a_19962_0# a_19962_0# nmos_drain_in
Xnmos_drain_in_70 a_19962_0# a_19962_0# a_19962_0# dw_n6950_n7050# a_19962_0# a_19962_0#
+ a_n938_0# a_19962_0# a_19962_0# a_n1100_n1200# a_19962_0# a_19962_0# nmos_drain_in
Xnmos_source_frame_rb_17 a_n938_0# a_n938_0# a_n938_0# a_n938_0# a_19962_0# a_n938_0#
+ a_n938_0# a_n1100_n1200# a_n938_0# a_n938_0# nmos_source_frame_rb
Xnmos_drain_frame_lt_4 a_19962_0# a_19962_0# a_19962_0# a_19962_0# a_19962_0# a_19962_0#
+ a_n1100_n1200# a_n938_0# a_19962_0# a_19962_0# nmos_drain_frame_lt
Xnmos_drain_in_117 a_19962_0# a_19962_0# a_19962_0# dw_n6950_n7050# a_19962_0# a_19962_0#
+ a_n938_0# a_19962_0# a_19962_0# a_n1100_n1200# a_19962_0# a_19962_0# nmos_drain_in
Xnmos_drain_in_128 a_19962_0# a_19962_0# a_19962_0# dw_n6950_n7050# a_19962_0# a_19962_0#
+ a_n938_0# a_19962_0# a_19962_0# a_n1100_n1200# a_19962_0# a_19962_0# nmos_drain_in
Xnmos_drain_in_139 a_19962_0# a_19962_0# a_19962_0# dw_n6950_n7050# a_19962_0# a_19962_0#
+ a_n938_0# a_19962_0# a_19962_0# a_n1100_n1200# a_19962_0# a_19962_0# nmos_drain_in
Xnmos_drain_in_106 a_19962_0# a_19962_0# a_19962_0# dw_n6950_n7050# a_19962_0# a_19962_0#
+ a_n938_0# a_19962_0# a_19962_0# a_n1100_n1200# a_19962_0# a_19962_0# nmos_drain_in
Xnmos_drain_in_2 a_19962_0# a_19962_0# a_19962_0# dw_n6950_n7050# a_19962_0# a_19962_0#
+ a_n938_0# a_19962_0# a_19962_0# a_n1100_n1200# a_19962_0# a_19962_0# nmos_drain_in
Xnmos_drain_in_82 a_19962_0# a_19962_0# a_19962_0# dw_n6950_n7050# a_19962_0# a_19962_0#
+ a_n938_0# a_19962_0# a_19962_0# a_n1100_n1200# a_19962_0# a_19962_0# nmos_drain_in
Xnmos_drain_in_93 a_19962_0# a_19962_0# a_19962_0# dw_n6950_n7050# a_19962_0# a_19962_0#
+ a_n938_0# a_19962_0# a_19962_0# a_n1100_n1200# a_19962_0# a_19962_0# nmos_drain_in
Xnmos_drain_in_60 a_19962_0# a_19962_0# a_19962_0# dw_n6950_n7050# a_19962_0# a_19962_0#
+ a_n938_0# a_19962_0# a_19962_0# a_n1100_n1200# a_19962_0# a_19962_0# nmos_drain_in
Xnmos_drain_in_71 a_19962_0# a_19962_0# a_19962_0# dw_n6950_n7050# a_19962_0# a_19962_0#
+ a_n938_0# a_19962_0# a_19962_0# a_n1100_n1200# a_19962_0# a_19962_0# nmos_drain_in
Xnmos_drain_frame_lt_5 a_19962_0# a_19962_0# a_19962_0# a_19962_0# a_19962_0# a_19962_0#
+ a_n1100_n1200# a_n938_0# a_19962_0# a_19962_0# nmos_drain_frame_lt
Xnmos_drain_in_118 a_19962_0# a_19962_0# a_19962_0# dw_n6950_n7050# a_19962_0# a_19962_0#
+ a_n938_0# a_19962_0# a_19962_0# a_n1100_n1200# a_19962_0# a_19962_0# nmos_drain_in
Xnmos_drain_in_129 a_19962_0# a_19962_0# a_19962_0# dw_n6950_n7050# a_19962_0# a_19962_0#
+ a_n938_0# a_19962_0# a_19962_0# a_n1100_n1200# a_19962_0# a_19962_0# nmos_drain_in
Xnmos_drain_in_107 a_19962_0# a_19962_0# a_19962_0# dw_n6950_n7050# a_19962_0# a_19962_0#
+ a_n938_0# a_19962_0# a_19962_0# a_n1100_n1200# a_19962_0# a_19962_0# nmos_drain_in
Xnmos_drain_in_3 a_19962_0# a_19962_0# a_19962_0# dw_n6950_n7050# a_19962_0# a_19962_0#
+ a_n938_0# a_19962_0# a_19962_0# a_n1100_n1200# a_19962_0# a_19962_0# nmos_drain_in
Xnmos_drain_in_72 a_19962_0# a_19962_0# a_19962_0# dw_n6950_n7050# a_19962_0# a_19962_0#
+ a_n938_0# a_19962_0# a_19962_0# a_n1100_n1200# a_19962_0# a_19962_0# nmos_drain_in
Xnmos_drain_in_83 a_19962_0# a_19962_0# a_19962_0# dw_n6950_n7050# a_19962_0# a_19962_0#
+ a_n938_0# a_19962_0# a_19962_0# a_n1100_n1200# a_19962_0# a_19962_0# nmos_drain_in
Xnmos_drain_in_94 a_19962_0# a_19962_0# a_19962_0# dw_n6950_n7050# a_19962_0# a_19962_0#
+ a_n938_0# a_19962_0# a_19962_0# a_n1100_n1200# a_19962_0# a_19962_0# nmos_drain_in
Xnmos_drain_in_50 a_19962_0# a_19962_0# a_19962_0# dw_n6950_n7050# a_19962_0# a_19962_0#
+ a_n938_0# a_19962_0# a_19962_0# a_n1100_n1200# a_19962_0# a_19962_0# nmos_drain_in
Xnmos_drain_in_61 a_19962_0# a_19962_0# a_19962_0# dw_n6950_n7050# a_19962_0# a_19962_0#
+ a_n938_0# a_19962_0# a_19962_0# a_n1100_n1200# a_19962_0# a_19962_0# nmos_drain_in
Xnmos_drain_frame_lt_6 a_19962_0# a_19962_0# a_19962_0# a_19962_0# a_19962_0# a_19962_0#
+ a_n1100_n1200# a_n938_0# a_19962_0# a_19962_0# nmos_drain_frame_lt
Xnmos_drain_in_108 a_19962_0# a_19962_0# a_19962_0# dw_n6950_n7050# a_19962_0# a_19962_0#
+ a_n938_0# a_19962_0# a_19962_0# a_n1100_n1200# a_19962_0# a_19962_0# nmos_drain_in
Xnmos_drain_in_119 a_19962_0# a_19962_0# a_19962_0# dw_n6950_n7050# a_19962_0# a_19962_0#
+ a_n938_0# a_19962_0# a_19962_0# a_n1100_n1200# a_19962_0# a_19962_0# nmos_drain_in
Xnmos_drain_in_4 a_19962_0# a_19962_0# a_19962_0# dw_n6950_n7050# a_19962_0# a_19962_0#
+ a_n938_0# a_19962_0# a_19962_0# a_n1100_n1200# a_19962_0# a_19962_0# nmos_drain_in
Xnmos_drain_in_73 a_19962_0# a_19962_0# a_19962_0# dw_n6950_n7050# a_19962_0# a_19962_0#
+ a_n938_0# a_19962_0# a_19962_0# a_n1100_n1200# a_19962_0# a_19962_0# nmos_drain_in
Xnmos_drain_in_84 a_19962_0# a_19962_0# a_19962_0# dw_n6950_n7050# a_19962_0# a_19962_0#
+ a_n938_0# a_19962_0# a_19962_0# a_n1100_n1200# a_19962_0# a_19962_0# nmos_drain_in
Xnmos_drain_in_40 a_19962_0# a_19962_0# a_19962_0# dw_n6950_n7050# a_19962_0# a_19962_0#
+ a_n938_0# a_19962_0# a_19962_0# a_n1100_n1200# a_19962_0# a_19962_0# nmos_drain_in
Xnmos_drain_in_51 a_19962_0# a_19962_0# a_19962_0# dw_n6950_n7050# a_19962_0# a_19962_0#
+ a_n938_0# a_19962_0# a_19962_0# a_n1100_n1200# a_19962_0# a_19962_0# nmos_drain_in
Xnmos_drain_in_95 a_19962_0# a_19962_0# a_19962_0# dw_n6950_n7050# a_19962_0# a_19962_0#
+ a_n938_0# a_19962_0# a_19962_0# a_n1100_n1200# a_19962_0# a_19962_0# nmos_drain_in
Xnmos_drain_in_62 a_19962_0# a_19962_0# a_19962_0# dw_n6950_n7050# a_19962_0# a_19962_0#
+ a_n938_0# a_19962_0# a_19962_0# a_n1100_n1200# a_19962_0# a_19962_0# nmos_drain_in
Xnmos_source_frame_rb_0 a_n938_0# a_n938_0# a_n938_0# a_n938_0# a_19962_0# a_n938_0#
+ a_n938_0# a_n1100_n1200# a_n938_0# a_n938_0# nmos_source_frame_rb
Xnmos_drain_frame_lt_7 a_19962_0# a_19962_0# a_19962_0# a_19962_0# a_19962_0# a_19962_0#
+ a_n1100_n1200# a_n938_0# a_19962_0# a_19962_0# nmos_drain_frame_lt
Xnmos_drain_in_109 a_19962_0# a_19962_0# a_19962_0# dw_n6950_n7050# a_19962_0# a_19962_0#
+ a_n938_0# a_19962_0# a_19962_0# a_n1100_n1200# a_19962_0# a_19962_0# nmos_drain_in
Xnmos_drain_in_5 a_19962_0# a_19962_0# a_19962_0# dw_n6950_n7050# a_19962_0# a_19962_0#
+ a_n938_0# a_19962_0# a_19962_0# a_n1100_n1200# a_19962_0# a_19962_0# nmos_drain_in
Xnmos_drain_in_63 a_19962_0# a_19962_0# a_19962_0# dw_n6950_n7050# a_19962_0# a_19962_0#
+ a_n938_0# a_19962_0# a_19962_0# a_n1100_n1200# a_19962_0# a_19962_0# nmos_drain_in
Xnmos_drain_in_30 a_19962_0# a_19962_0# a_19962_0# dw_n6950_n7050# a_19962_0# a_19962_0#