* NGSPICE file created from user_analog_project_wrapper.ext - technology: sky130A

.subckt level_shifter level_shifter_0/VDD level_shifter_0/VH level_shifter_0/GND level_shifter_0/IN
+ level_shifter_0/OUT
X0 a_1660_2346# level_shifter_0/cruzados_0/OUT level_shifter_0/VH level_shifter_0/VH sky130_fd_pr__pfet_g5v0d10v5 ad=0.58 pd=4.58 as=0.58 ps=4.58 w=2 l=0.5
X1 level_shifter_0/OUT level_shifter_0/inv_400_0/IN level_shifter_0/GND level_shifter_0/GND sky130_fd_pr__nfet_g5v0d10v5 ad=2.9 pd=20.3 as=2.9 ps=20.3 w=20 l=0.5
X2 level_shifter_0/GND level_shifter_0/IN level_shifter_0/inv_400_0/IN level_shifter_0/GND sky130_fd_pr__nfet_g5v0d10v5 ad=1.45 pd=10.3 as=1.45 ps=10.3 w=10 l=0.5
X3 level_shifter_0/VH level_shifter_0/inv_400_0/IN level_shifter_0/OUT level_shifter_0/VH sky130_fd_pr__pfet_g5v0d10v5 ad=2.9 pd=20.3 as=2.9 ps=20.3 w=20 l=0.5
X4 level_shifter_0/OUT level_shifter_0/inv_400_0/IN level_shifter_0/VH level_shifter_0/VH sky130_fd_pr__pfet_g5v0d10v5 ad=2.9 pd=20.3 as=2.9 ps=20.3 w=20 l=0.5
X5 level_shifter_0/GND level_shifter_0/inv_400_0/IN level_shifter_0/OUT level_shifter_0/GND sky130_fd_pr__nfet_g5v0d10v5 ad=2.9 pd=20.3 as=2.9 ps=20.3 w=20 l=0.5
X6 level_shifter_0/OUT level_shifter_0/inv_400_0/IN level_shifter_0/GND level_shifter_0/GND sky130_fd_pr__nfet_g5v0d10v5 ad=2.9 pd=20.3 as=2.9 ps=20.3 w=20 l=0.5
X7 level_shifter_0/VH level_shifter_0/cruzados_0/OUT level_shifter_0/inv_400_0/IN level_shifter_0/VH sky130_fd_pr__pfet_g5v0d10v5 ad=1.45 pd=10.3 as=1.45 ps=10.3 w=10 l=0.5
X8 level_shifter_0/OUT level_shifter_0/inv_400_0/IN level_shifter_0/VH level_shifter_0/VH sky130_fd_pr__pfet_g5v0d10v5 ad=2.9 pd=20.3 as=2.9 ps=20.3 w=20 l=0.5
X9 level_shifter_0/inv_400_0/IN level_shifter_0/cruzados_0/OUT level_shifter_0/VH level_shifter_0/VH sky130_fd_pr__pfet_g5v0d10v5 ad=1.45 pd=10.3 as=1.45 ps=10.3 w=10 l=0.5
X10 level_shifter_0/inv_1_8_0/OUT level_shifter_0/IN level_shifter_0/GND level_shifter_0/GND sky130_fd_pr__nfet_01v8 ad=0.165 pd=1.33 as=0.31 ps=2.62 w=1 l=0.15
X11 level_shifter_0/OUT level_shifter_0/inv_400_0/IN level_shifter_0/GND level_shifter_0/GND sky130_fd_pr__nfet_g5v0d10v5 ad=2.9 pd=20.3 as=2.9 ps=20.3 w=20 l=0.5
X12 level_shifter_0/GND level_shifter_0/inv_400_0/IN level_shifter_0/OUT level_shifter_0/GND sky130_fd_pr__nfet_g5v0d10v5 ad=2.9 pd=20.3 as=2.9 ps=20.3 w=20 l=0.5
X13 level_shifter_0/GND level_shifter_0/inv_400_0/IN level_shifter_0/OUT level_shifter_0/GND sky130_fd_pr__nfet_g5v0d10v5 ad=5.8 pd=40.6 as=2.9 ps=20.3 w=20 l=0.5
X14 level_shifter_0/OUT level_shifter_0/inv_400_0/IN level_shifter_0/VH level_shifter_0/VH sky130_fd_pr__pfet_g5v0d10v5 ad=2.9 pd=20.3 as=2.9 ps=20.3 w=20 l=0.5
X15 level_shifter_0/OUT level_shifter_0/inv_400_0/IN level_shifter_0/GND level_shifter_0/GND sky130_fd_pr__nfet_g5v0d10v5 ad=2.9 pd=20.3 as=2.9 ps=20.3 w=20 l=0.5
X16 level_shifter_0/OUT level_shifter_0/inv_400_0/IN level_shifter_0/VH level_shifter_0/VH sky130_fd_pr__pfet_g5v0d10v5 ad=2.9 pd=20.3 as=2.9 ps=20.3 w=20 l=0.5
X17 level_shifter_0/GND level_shifter_0/IN level_shifter_0/inv_1_8_0/OUT level_shifter_0/GND sky130_fd_pr__nfet_01v8 ad=0.165 pd=1.33 as=0.165 ps=1.33 w=1 l=0.15
X18 level_shifter_0/VH level_shifter_0/cruzados_0/OUT level_shifter_0/inv_400_0/IN level_shifter_0/VH sky130_fd_pr__pfet_g5v0d10v5 ad=1.45 pd=10.3 as=1.45 ps=10.3 w=10 l=0.5
X19 level_shifter_0/OUT level_shifter_0/inv_400_0/IN level_shifter_0/VH level_shifter_0/VH sky130_fd_pr__pfet_g5v0d10v5 ad=2.9 pd=20.3 as=2.9 ps=20.3 w=20 l=0.5
X20 level_shifter_0/inv_1_8_0/OUT level_shifter_0/IN level_shifter_0/VDD level_shifter_0/VDD sky130_fd_pr__pfet_01v8 ad=0.31 pd=2.62 as=0.165 ps=1.33 w=1 l=0.15
X21 level_shifter_0/cruzados_0/OUT level_shifter_0/inv_1_8_0/OUT level_shifter_0/GND level_shifter_0/GND sky130_fd_pr__nfet_g5v0d10v5 ad=1.16 pd=8.58 as=0.58 ps=4.29 w=4 l=0.5
X22 level_shifter_0/GND level_shifter_0/inv_400_0/IN level_shifter_0/OUT level_shifter_0/GND sky130_fd_pr__nfet_g5v0d10v5 ad=2.9 pd=20.3 as=2.9 ps=20.3 w=20 l=0.5
X23 level_shifter_0/VH level_shifter_0/inv_400_0/IN level_shifter_0/OUT level_shifter_0/VH sky130_fd_pr__pfet_g5v0d10v5 ad=2.9 pd=20.3 as=2.9 ps=20.3 w=20 l=0.5
X24 level_shifter_0/GND level_shifter_0/inv_400_0/IN level_shifter_0/OUT level_shifter_0/GND sky130_fd_pr__nfet_g5v0d10v5 ad=2.9 pd=20.3 as=2.9 ps=20.3 w=20 l=0.5
X25 level_shifter_0/inv_1_8_0/OUT level_shifter_0/IN level_shifter_0/VDD level_shifter_0/VDD sky130_fd_pr__pfet_01v8 ad=0.165 pd=1.33 as=0.31 ps=2.62 w=1 l=0.15
X26 level_shifter_0/VH level_shifter_0/inv_400_0/IN level_shifter_0/OUT level_shifter_0/VH sky130_fd_pr__pfet_g5v0d10v5 ad=2.9 pd=20.3 as=2.9 ps=20.3 w=20 l=0.5
X27 level_shifter_0/inv_1_8_0/OUT level_shifter_0/IN level_shifter_0/GND level_shifter_0/GND sky130_fd_pr__nfet_01v8 ad=0.165 pd=1.33 as=0.165 ps=1.33 w=1 l=0.15
X28 level_shifter_0/inv_400_0/IN level_shifter_0/IN level_shifter_0/GND level_shifter_0/GND sky130_fd_pr__nfet_g5v0d10v5 ad=1.45 pd=10.3 as=1.45 ps=10.3 w=10 l=0.5
X29 level_shifter_0/VH level_shifter_0/inv_400_0/IN level_shifter_0/OUT level_shifter_0/VH sky130_fd_pr__pfet_g5v0d10v5 ad=2.9 pd=20.3 as=2.9 ps=20.3 w=20 l=0.5
X30 level_shifter_0/VDD level_shifter_0/IN level_shifter_0/inv_1_8_0/OUT level_shifter_0/VDD sky130_fd_pr__pfet_01v8 ad=0.165 pd=1.33 as=0.165 ps=1.33 w=1 l=0.15
X31 level_shifter_0/GND level_shifter_0/inv_400_0/IN level_shifter_0/OUT level_shifter_0/GND sky130_fd_pr__nfet_g5v0d10v5 ad=2.9 pd=20.3 as=2.9 ps=20.3 w=20 l=0.5
X32 level_shifter_0/cruzados_0/OUT a_1660_2346# level_shifter_0/VH level_shifter_0/VH sky130_fd_pr__pfet_g5v0d10v5 ad=0.58 pd=4.58 as=0.58 ps=4.58 w=2 l=0.5
X33 level_shifter_0/OUT level_shifter_0/inv_400_0/IN level_shifter_0/GND level_shifter_0/GND sky130_fd_pr__nfet_g5v0d10v5 ad=2.9 pd=20.3 as=2.9 ps=20.3 w=20 l=0.5
X34 level_shifter_0/OUT level_shifter_0/inv_400_0/IN level_shifter_0/GND level_shifter_0/GND sky130_fd_pr__nfet_g5v0d10v5 ad=2.9 pd=20.3 as=5.8 ps=40.6 w=20 l=0.5
X35 level_shifter_0/inv_400_0/IN level_shifter_0/IN level_shifter_0/GND level_shifter_0/GND sky130_fd_pr__nfet_g5v0d10v5 ad=1.45 pd=10.3 as=1.45 ps=10.3 w=10 l=0.5
X36 level_shifter_0/GND level_shifter_0/IN level_shifter_0/inv_400_0/IN level_shifter_0/GND sky130_fd_pr__nfet_g5v0d10v5 ad=2.9 pd=20.6 as=1.45 ps=10.3 w=10 l=0.5
X37 level_shifter_0/cruzados_0/OUT level_shifter_0/inv_1_8_0/OUT level_shifter_0/GND level_shifter_0/GND sky130_fd_pr__nfet_g5v0d10v5 ad=0.58 pd=4.29 as=1.16 ps=8.58 w=4 l=0.5
X38 level_shifter_0/GND level_shifter_0/inv_400_0/IN level_shifter_0/OUT level_shifter_0/GND sky130_fd_pr__nfet_g5v0d10v5 ad=2.9 pd=20.3 as=2.9 ps=20.3 w=20 l=0.5
X39 level_shifter_0/OUT level_shifter_0/inv_400_0/IN level_shifter_0/GND level_shifter_0/GND sky130_fd_pr__nfet_g5v0d10v5 ad=2.9 pd=20.3 as=2.9 ps=20.3 w=20 l=0.5
X40 level_shifter_0/GND level_shifter_0/IN a_1660_2346# level_shifter_0/GND sky130_fd_pr__nfet_g5v0d10v5 ad=0.58 pd=4.29 as=0.58 ps=4.29 w=4 l=0.5
X41 level_shifter_0/inv_400_0/IN level_shifter_0/cruzados_0/OUT level_shifter_0/VH level_shifter_0/VH sky130_fd_pr__pfet_g5v0d10v5 ad=1.45 pd=10.3 as=1.45 ps=10.3 w=10 l=0.5
X42 level_shifter_0/OUT level_shifter_0/inv_400_0/IN level_shifter_0/VH level_shifter_0/VH sky130_fd_pr__pfet_g5v0d10v5 ad=2.9 pd=20.3 as=5.8 ps=40.6 w=20 l=0.5
X43 level_shifter_0/OUT level_shifter_0/inv_400_0/IN level_shifter_0/VH level_shifter_0/VH sky130_fd_pr__pfet_g5v0d10v5 ad=2.9 pd=20.3 as=2.9 ps=20.3 w=20 l=0.5
X44 level_shifter_0/OUT level_shifter_0/inv_400_0/IN level_shifter_0/GND level_shifter_0/GND sky130_fd_pr__nfet_g5v0d10v5 ad=2.9 pd=20.3 as=2.9 ps=20.3 w=20 l=0.5
X45 level_shifter_0/GND level_shifter_0/IN level_shifter_0/inv_400_0/IN level_shifter_0/GND sky130_fd_pr__nfet_g5v0d10v5 ad=1.45 pd=10.3 as=1.45 ps=10.3 w=10 l=0.5
X46 level_shifter_0/OUT level_shifter_0/inv_400_0/IN level_shifter_0/VH level_shifter_0/VH sky130_fd_pr__pfet_g5v0d10v5 ad=2.9 pd=20.3 as=2.9 ps=20.3 w=20 l=0.5
X47 level_shifter_0/GND level_shifter_0/IN level_shifter_0/inv_1_8_0/OUT level_shifter_0/GND sky130_fd_pr__nfet_01v8 ad=0.165 pd=1.33 as=0.165 ps=1.33 w=1 l=0.15
X48 level_shifter_0/inv_1_8_0/OUT level_shifter_0/IN level_shifter_0/VDD level_shifter_0/VDD sky130_fd_pr__pfet_01v8 ad=0.165 pd=1.33 as=0.165 ps=1.33 w=1 l=0.15
X49 level_shifter_0/GND level_shifter_0/inv_400_0/IN level_shifter_0/OUT level_shifter_0/GND sky130_fd_pr__nfet_g5v0d10v5 ad=2.9 pd=20.3 as=2.9 ps=20.3 w=20 l=0.5
X50 level_shifter_0/inv_400_0/IN level_shifter_0/cruzados_0/OUT level_shifter_0/VH level_shifter_0/VH sky130_fd_pr__pfet_g5v0d10v5 ad=1.45 pd=10.3 as=1.45 ps=10.3 w=10 l=0.5
X51 level_shifter_0/VH level_shifter_0/cruzados_0/OUT level_shifter_0/inv_400_0/IN level_shifter_0/VH sky130_fd_pr__pfet_g5v0d10v5 ad=2.9 pd=20.6 as=1.45 ps=10.3 w=10 l=0.5
X52 level_shifter_0/OUT level_shifter_0/inv_400_0/IN level_shifter_0/VH level_shifter_0/VH sky130_fd_pr__pfet_g5v0d10v5 ad=2.9 pd=20.3 as=2.9 ps=20.3 w=20 l=0.5
X53 level_shifter_0/inv_400_0/IN level_shifter_0/IN level_shifter_0/GND level_shifter_0/GND sky130_fd_pr__nfet_g5v0d10v5 ad=1.45 pd=10.3 as=2.9 ps=20.6 w=10 l=0.5
X54 level_shifter_0/GND level_shifter_0/IN level_shifter_0/inv_400_0/IN level_shifter_0/GND sky130_fd_pr__nfet_g5v0d10v5 ad=1.45 pd=10.3 as=1.45 ps=10.3 w=10 l=0.5
X55 level_shifter_0/OUT level_shifter_0/inv_400_0/IN level_shifter_0/VH level_shifter_0/VH sky130_fd_pr__pfet_g5v0d10v5 ad=2.9 pd=20.3 as=2.9 ps=20.3 w=20 l=0.5
X56 level_shifter_0/VH level_shifter_0/inv_400_0/IN level_shifter_0/OUT level_shifter_0/VH sky130_fd_pr__pfet_g5v0d10v5 ad=2.9 pd=20.3 as=2.9 ps=20.3 w=20 l=0.5
X57 level_shifter_0/GND level_shifter_0/inv_1_8_0/OUT level_shifter_0/cruzados_0/OUT level_shifter_0/GND sky130_fd_pr__nfet_g5v0d10v5 ad=0.58 pd=4.29 as=0.58 ps=4.29 w=4 l=0.5
X58 level_shifter_0/VH level_shifter_0/cruzados_0/OUT level_shifter_0/inv_400_0/IN level_shifter_0/VH sky130_fd_pr__pfet_g5v0d10v5 ad=1.45 pd=10.3 as=1.45 ps=10.3 w=10 l=0.5
X59 a_1660_2346# level_shifter_0/IN level_shifter_0/GND level_shifter_0/GND sky130_fd_pr__nfet_g5v0d10v5 ad=1.16 pd=8.58 as=0.58 ps=4.29 w=4 l=0.5
X60 level_shifter_0/VH level_shifter_0/inv_400_0/IN level_shifter_0/OUT level_shifter_0/VH sky130_fd_pr__pfet_g5v0d10v5 ad=5.8 pd=40.6 as=2.9 ps=20.3 w=20 l=0.5
X61 level_shifter_0/inv_400_0/IN level_shifter_0/IN level_shifter_0/GND level_shifter_0/GND sky130_fd_pr__nfet_g5v0d10v5 ad=1.45 pd=10.3 as=1.45 ps=10.3 w=10 l=0.5
X62 level_shifter_0/VH level_shifter_0/inv_400_0/IN level_shifter_0/OUT level_shifter_0/VH sky130_fd_pr__pfet_g5v0d10v5 ad=2.9 pd=20.3 as=2.9 ps=20.3 w=20 l=0.5
X63 level_shifter_0/OUT level_shifter_0/inv_400_0/IN level_shifter_0/GND level_shifter_0/GND sky130_fd_pr__nfet_g5v0d10v5 ad=2.9 pd=20.3 as=2.9 ps=20.3 w=20 l=0.5
X64 level_shifter_0/inv_400_0/IN level_shifter_0/cruzados_0/OUT level_shifter_0/VH level_shifter_0/VH sky130_fd_pr__pfet_g5v0d10v5 ad=1.45 pd=10.3 as=2.9 ps=20.6 w=10 l=0.5
X65 level_shifter_0/VH level_shifter_0/inv_400_0/IN level_shifter_0/OUT level_shifter_0/VH sky130_fd_pr__pfet_g5v0d10v5 ad=2.9 pd=20.3 as=2.9 ps=20.3 w=20 l=0.5
X66 level_shifter_0/VDD level_shifter_0/IN level_shifter_0/inv_1_8_0/OUT level_shifter_0/VDD sky130_fd_pr__pfet_01v8 ad=0.165 pd=1.33 as=0.165 ps=1.33 w=1 l=0.15
X67 level_shifter_0/VH level_shifter_0/cruzados_0/OUT level_shifter_0/inv_400_0/IN level_shifter_0/VH sky130_fd_pr__pfet_g5v0d10v5 ad=1.45 pd=10.3 as=1.45 ps=10.3 w=10 l=0.5
X68 level_shifter_0/VH level_shifter_0/inv_400_0/IN level_shifter_0/OUT level_shifter_0/VH sky130_fd_pr__pfet_g5v0d10v5 ad=2.9 pd=20.3 as=2.9 ps=20.3 w=20 l=0.5
X69 level_shifter_0/OUT level_shifter_0/inv_400_0/IN level_shifter_0/GND level_shifter_0/GND sky130_fd_pr__nfet_g5v0d10v5 ad=2.9 pd=20.3 as=2.9 ps=20.3 w=20 l=0.5
X70 level_shifter_0/GND level_shifter_0/IN level_shifter_0/inv_400_0/IN level_shifter_0/GND sky130_fd_pr__nfet_g5v0d10v5 ad=1.45 pd=10.3 as=1.45 ps=10.3 w=10 l=0.5
X71 level_shifter_0/VH level_shifter_0/inv_400_0/IN level_shifter_0/OUT level_shifter_0/VH sky130_fd_pr__pfet_g5v0d10v5 ad=2.9 pd=20.3 as=2.9 ps=20.3 w=20 l=0.5
X72 level_shifter_0/inv_1_8_0/OUT level_shifter_0/IN level_shifter_0/GND level_shifter_0/GND sky130_fd_pr__nfet_01v8 ad=0.31 pd=2.62 as=0.165 ps=1.33 w=1 l=0.15
X73 level_shifter_0/GND level_shifter_0/inv_400_0/IN level_shifter_0/OUT level_shifter_0/GND sky130_fd_pr__nfet_g5v0d10v5 ad=2.9 pd=20.3 as=2.9 ps=20.3 w=20 l=0.5
X74 level_shifter_0/inv_400_0/IN level_shifter_0/cruzados_0/OUT level_shifter_0/VH level_shifter_0/VH sky130_fd_pr__pfet_g5v0d10v5 ad=1.45 pd=10.3 as=1.45 ps=10.3 w=10 l=0.5
X75 level_shifter_0/inv_400_0/IN level_shifter_0/IN level_shifter_0/GND level_shifter_0/GND sky130_fd_pr__nfet_g5v0d10v5 ad=1.45 pd=10.3 as=1.45 ps=10.3 w=10 l=0.5
X76 a_1660_2346# level_shifter_0/IN level_shifter_0/GND level_shifter_0/GND sky130_fd_pr__nfet_g5v0d10v5 ad=0.58 pd=4.29 as=1.16 ps=8.58 w=4 l=0.5
X77 level_shifter_0/GND level_shifter_0/inv_400_0/IN level_shifter_0/OUT level_shifter_0/GND sky130_fd_pr__nfet_g5v0d10v5 ad=2.9 pd=20.3 as=2.9 ps=20.3 w=20 l=0.5
.ends

.subckt nmos_drain_in m5_0_0# m4_648_1020# a_n6_62# dw_0_0# m3_0_0# w_0_0# a_100_62#
+ m5_788_894# m4_0_0# a_0_0# a_162_1100# m3_648_1020#
X0 a_162_1100# a_0_0# a_100_62# w_0_0# sky130_fd_pr__nfet_g5v0d10v5 ad=0.131 pd=8.82 as=2.78 ps=18.8 w=4.38 l=0.5
X1 a_100_62# a_0_0# a_n6_62# w_0_0# sky130_fd_pr__nfet_g5v0d10v5 ad=2.78 pd=18.8 as=0.131 ps=8.82 w=4.38 l=0.5
.ends

.subckt nmos_source_in m5_0_0# m4_648_1020# a_n6_62# dw_0_0# m3_0_0# w_0_0# m5_788_894#
+ m4_0_0# a_0_0# a_162_1100# m3_648_1020#
X0 a_162_1100# a_0_0# w_0_0# w_0_0# sky130_fd_pr__nfet_g5v0d10v5 ad=0.131 pd=8.82 as=6.86 ps=16.6 w=4.38 l=0.5
X1 w_0_0# a_0_0# a_n6_62# w_0_0# sky130_fd_pr__nfet_g5v0d10v5 ad=6.86 pd=16.6 as=0.131 ps=8.82 w=4.38 l=0.5
.ends

.subckt nmos_source_frame_lt m4_n1950_0# m4_648_1020# m5_n1950_0# a_n950_0# m5_788_894#
+ m3_n1950_0# a_0_0# a_162_1100# m3_648_1020#
X0 a_162_1100# a_0_0# a_n950_0# a_n950_0# sky130_fd_pr__nfet_g5v0d10v5 ad=0.131 pd=8.82 as=12.5 ps=32.6 w=4.38 l=0.5
.ends

.subckt nmos_drain_frame_rb m5_0_0# m4_648_1020# a_n6_62# m3_0_0# a_100_62# m5_788_894#
+ m4_0_0# a_0_0# a_162_1100# m3_648_1020# a_1550_0#
X0 a_162_1100# a_0_0# a_100_62# a_1550_0# sky130_fd_pr__nfet_g5v0d10v5 ad=0.131 pd=8.82 as=2.03 ps=14.1 w=4.38 l=0.5
X1 a_100_62# a_0_0# a_n6_62# a_1550_0# sky130_fd_pr__nfet_g5v0d10v5 ad=2.03 pd=14.1 as=0.131 ps=8.82 w=4.38 l=0.5
.ends

.subckt nmos_source_frame_rb m5_0_0# m4_648_1020# a_n6_62# m3_0_0# a_100_62# m5_788_894#
+ m4_0_0# a_0_0# a_162_1100# m3_648_1020#
X0 a_162_1100# a_0_0# a_100_62# a_100_62# sky130_fd_pr__nfet_g5v0d10v5 ad=0.131 pd=8.82 as=6.23 ps=16.3 w=4.38 l=0.5
X1 a_100_62# a_0_0# a_n6_62# a_100_62# sky130_fd_pr__nfet_g5v0d10v5 ad=6.23 pd=16.3 as=0.131 ps=8.82 w=4.38 l=0.5
.ends

.subckt nmos_drain_frame_lt m4_648_1020# m3_n950_0# a_n950_0# m4_n950_0# m5_n950_0#
+ m5_788_894# a_0_0# a_162_0# a_162_1100# m3_648_1020#
X0 a_162_1100# a_0_0# a_162_0# a_n950_0# sky130_fd_pr__nfet_g5v0d10v5 ad=0.131 pd=8.82 as=4.05 ps=28.2 w=4.38 l=0.5
.ends

.subckt nmos_waffle_36x36 dw_n6950_n7050# a_n938_0# a_37562_0# a_n1100_n1200#
Xnmos_drain_in_530 a_37562_0# a_37562_0# a_37562_0# dw_n6950_n7050# a_37562_0# a_37562_0#
+ a_n938_0# a_37562_0# a_37562_0# a_n1100_n1200# a_37562_0# a_37562_0# nmos_drain_in
Xnmos_drain_in_541 a_37562_0# a_37562_0# a_37562_0# dw_n6950_n7050# a_37562_0# a_37562_0#
+ a_n938_0# a_37562_0# a_37562_0# a_n1100_n1200# a_37562_0# a_37562_0# nmos_drain_in
Xnmos_drain_in_552 a_37562_0# a_37562_0# a_37562_0# dw_n6950_n7050# a_37562_0# a_37562_0#
+ a_n938_0# a_37562_0# a_37562_0# a_n1100_n1200# a_37562_0# a_37562_0# nmos_drain_in
Xnmos_drain_in_563 a_37562_0# a_37562_0# a_37562_0# dw_n6950_n7050# a_37562_0# a_37562_0#
+ a_n938_0# a_37562_0# a_37562_0# a_n1100_n1200# a_37562_0# a_37562_0# nmos_drain_in
Xnmos_drain_in_574 a_37562_0# a_37562_0# a_37562_0# dw_n6950_n7050# a_37562_0# a_37562_0#
+ a_n938_0# a_37562_0# a_37562_0# a_n1100_n1200# a_37562_0# a_37562_0# nmos_drain_in
Xnmos_source_in_349 a_n938_0# a_n938_0# a_n938_0# dw_n6950_n7050# a_n938_0# a_37562_0#
+ a_n938_0# a_n938_0# a_n1100_n1200# a_n938_0# a_n938_0# nmos_source_in
Xnmos_source_in_338 a_n938_0# a_n938_0# a_n938_0# dw_n6950_n7050# a_n938_0# a_37562_0#
+ a_n938_0# a_n938_0# a_n1100_n1200# a_n938_0# a_n938_0# nmos_source_in
Xnmos_source_in_327 a_n938_0# a_n938_0# a_n938_0# dw_n6950_n7050# a_n938_0# a_37562_0#
+ a_n938_0# a_n938_0# a_n1100_n1200# a_n938_0# a_n938_0# nmos_source_in
Xnmos_source_in_316 a_n938_0# a_n938_0# a_n938_0# dw_n6950_n7050# a_n938_0# a_37562_0#
+ a_n938_0# a_n938_0# a_n1100_n1200# a_n938_0# a_n938_0# nmos_source_in
Xnmos_source_in_305 a_n938_0# a_n938_0# a_n938_0# dw_n6950_n7050# a_n938_0# a_37562_0#
+ a_n938_0# a_n938_0# a_n1100_n1200# a_n938_0# a_n938_0# nmos_source_in
Xnmos_drain_in_360 a_37562_0# a_37562_0# a_37562_0# dw_n6950_n7050# a_37562_0# a_37562_0#
+ a_n938_0# a_37562_0# a_37562_0# a_n1100_n1200# a_37562_0# a_37562_0# nmos_drain_in
Xnmos_drain_in_371 a_37562_0# a_37562_0# a_37562_0# dw_n6950_n7050# a_37562_0# a_37562_0#
+ a_n938_0# a_37562_0# a_37562_0# a_n1100_n1200# a_37562_0# a_37562_0# nmos_drain_in
Xnmos_drain_in_382 a_37562_0# a_37562_0# a_37562_0# dw_n6950_n7050# a_37562_0# a_37562_0#
+ a_n938_0# a_37562_0# a_37562_0# a_n1100_n1200# a_37562_0# a_37562_0# nmos_drain_in
Xnmos_drain_in_393 a_37562_0# a_37562_0# a_37562_0# dw_n6950_n7050# a_37562_0# a_37562_0#
+ a_n938_0# a_37562_0# a_37562_0# a_n1100_n1200# a_37562_0# a_37562_0# nmos_drain_in
Xnmos_source_in_102 a_n938_0# a_n938_0# a_n938_0# dw_n6950_n7050# a_n938_0# a_37562_0#
+ a_n938_0# a_n938_0# a_n1100_n1200# a_n938_0# a_n938_0# nmos_source_in
Xnmos_source_in_113 a_n938_0# a_n938_0# a_n938_0# dw_n6950_n7050# a_n938_0# a_37562_0#
+ a_n938_0# a_n938_0# a_n1100_n1200# a_n938_0# a_n938_0# nmos_source_in
Xnmos_source_in_124 a_n938_0# a_n938_0# a_n938_0# dw_n6950_n7050# a_n938_0# a_37562_0#
+ a_n938_0# a_n938_0# a_n1100_n1200# a_n938_0# a_n938_0# nmos_source_in
Xnmos_source_in_135 a_n938_0# a_n938_0# a_n938_0# dw_n6950_n7050# a_n938_0# a_37562_0#
+ a_n938_0# a_n938_0# a_n1100_n1200# a_n938_0# a_n938_0# nmos_source_in
Xnmos_source_in_146 a_n938_0# a_n938_0# a_n938_0# dw_n6950_n7050# a_n938_0# a_37562_0#
+ a_n938_0# a_n938_0# a_n1100_n1200# a_n938_0# a_n938_0# nmos_source_in
Xnmos_source_in_157 a_n938_0# a_n938_0# a_n938_0# dw_n6950_n7050# a_n938_0# a_37562_0#
+ a_n938_0# a_n938_0# a_n1100_n1200# a_n938_0# a_n938_0# nmos_source_in
Xnmos_source_in_168 a_n938_0# a_n938_0# a_n938_0# dw_n6950_n7050# a_n938_0# a_37562_0#
+ a_n938_0# a_n938_0# a_n1100_n1200# a_n938_0# a_n938_0# nmos_source_in
Xnmos_source_in_179 a_n938_0# a_n938_0# a_n938_0# dw_n6950_n7050# a_n938_0# a_37562_0#
+ a_n938_0# a_n938_0# a_n1100_n1200# a_n938_0# a_n938_0# nmos_source_in
Xnmos_source_in_17 a_n938_0# a_n938_0# a_n938_0# dw_n6950_n7050# a_n938_0# a_37562_0#
+ a_n938_0# a_n938_0# a_n1100_n1200# a_n938_0# a_n938_0# nmos_source_in
Xnmos_source_in_28 a_n938_0# a_n938_0# a_n938_0# dw_n6950_n7050# a_n938_0# a_37562_0#
+ a_n938_0# a_n938_0# a_n1100_n1200# a_n938_0# a_n938_0# nmos_source_in
Xnmos_source_in_39 a_n938_0# a_n938_0# a_n938_0# dw_n6950_n7050# a_n938_0# a_37562_0#
+ a_n938_0# a_n938_0# a_n1100_n1200# a_n938_0# a_n938_0# nmos_source_in
Xnmos_drain_in_190 a_37562_0# a_37562_0# a_37562_0# dw_n6950_n7050# a_37562_0# a_37562_0#
+ a_n938_0# a_37562_0# a_37562_0# a_n1100_n1200# a_37562_0# a_37562_0# nmos_drain_in
Xnmos_source_in_8 a_n938_0# a_n938_0# a_n938_0# dw_n6950_n7050# a_n938_0# a_37562_0#
+ a_n938_0# a_n938_0# a_n1100_n1200# a_n938_0# a_n938_0# nmos_source_in
Xnmos_source_in_509 a_n938_0# a_n938_0# a_n938_0# dw_n6950_n7050# a_n938_0# a_37562_0#
+ a_n938_0# a_n938_0# a_n1100_n1200# a_n938_0# a_n938_0# nmos_source_in
Xnmos_drain_in_520 a_37562_0# a_37562_0# a_37562_0# dw_n6950_n7050# a_37562_0# a_37562_0#
+ a_n938_0# a_37562_0# a_37562_0# a_n1100_n1200# a_37562_0# a_37562_0# nmos_drain_in
Xnmos_drain_in_531 a_37562_0# a_37562_0# a_37562_0# dw_n6950_n7050# a_37562_0# a_37562_0#
+ a_n938_0# a_37562_0# a_37562_0# a_n1100_n1200# a_37562_0# a_37562_0# nmos_drain_in
Xnmos_drain_in_542 a_37562_0# a_37562_0# a_37562_0# dw_n6950_n7050# a_37562_0# a_37562_0#
+ a_n938_0# a_37562_0# a_37562_0# a_n1100_n1200# a_37562_0# a_37562_0# nmos_drain_in
Xnmos_drain_in_553 a_37562_0# a_37562_0# a_37562_0# dw_n6950_n7050# a_37562_0# a_37562_0#
+ a_n938_0# a_37562_0# a_37562_0# a_n1100_n1200# a_37562_0# a_37562_0# nmos_drain_in
Xnmos_drain_in_564 a_37562_0# a_37562_0# a_37562_0# dw_n6950_n7050# a_37562_0# a_37562_0#
+ a_n938_0# a_37562_0# a_37562_0# a_n1100_n1200# a_37562_0# a_37562_0# nmos_drain_in
Xnmos_drain_in_575 a_37562_0# a_37562_0# a_37562_0# dw_n6950_n7050# a_37562_0# a_37562_0#
+ a_n938_0# a_37562_0# a_37562_0# a_n1100_n1200# a_37562_0# a_37562_0# nmos_drain_in
Xnmos_source_in_339 a_n938_0# a_n938_0# a_n938_0# dw_n6950_n7050# a_n938_0# a_37562_0#
+ a_n938_0# a_n938_0# a_n1100_n1200# a_n938_0# a_n938_0# nmos_source_in
Xnmos_source_in_328 a_n938_0# a_n938_0# a_n938_0# dw_n6950_n7050# a_n938_0# a_37562_0#
+ a_n938_0# a_n938_0# a_n1100_n1200# a_n938_0# a_n938_0# nmos_source_in
Xnmos_source_in_317 a_n938_0# a_n938_0# a_n938_0# dw_n6950_n7050# a_n938_0# a_37562_0#
+ a_n938_0# a_n938_0# a_n1100_n1200# a_n938_0# a_n938_0# nmos_source_in
Xnmos_source_in_306 a_n938_0# a_n938_0# a_n938_0# dw_n6950_n7050# a_n938_0# a_37562_0#
+ a_n938_0# a_n938_0# a_n1100_n1200# a_n938_0# a_n938_0# nmos_source_in
Xnmos_drain_in_350 a_37562_0# a_37562_0# a_37562_0# dw_n6950_n7050# a_37562_0# a_37562_0#
+ a_n938_0# a_37562_0# a_37562_0# a_n1100_n1200# a_37562_0# a_37562_0# nmos_drain_in
Xnmos_drain_in_361 a_37562_0# a_37562_0# a_37562_0# dw_n6950_n7050# a_37562_0# a_37562_0#
+ a_n938_0# a_37562_0# a_37562_0# a_n1100_n1200# a_37562_0# a_37562_0# nmos_drain_in
Xnmos_drain_in_372 a_37562_0# a_37562_0# a_37562_0# dw_n6950_n7050# a_37562_0# a_37562_0#
+ a_n938_0# a_37562_0# a_37562_0# a_n1100_n1200# a_37562_0# a_37562_0# nmos_drain_in
Xnmos_drain_in_383 a_37562_0# a_37562_0# a_37562_0# dw_n6950_n7050# a_37562_0# a_37562_0#
+ a_n938_0# a_37562_0# a_37562_0# a_n1100_n1200# a_37562_0# a_37562_0# nmos_drain_in
Xnmos_drain_in_394 a_37562_0# a_37562_0# a_37562_0# dw_n6950_n7050# a_37562_0# a_37562_0#
+ a_n938_0# a_37562_0# a_37562_0# a_n1100_n1200# a_37562_0# a_37562_0# nmos_drain_in
Xnmos_source_in_103 a_n938_0# a_n938_0# a_n938_0# dw_n6950_n7050# a_n938_0# a_37562_0#
+ a_n938_0# a_n938_0# a_n1100_n1200# a_n938_0# a_n938_0# nmos_source_in
Xnmos_source_in_114 a_n938_0# a_n938_0# a_n938_0# dw_n6950_n7050# a_n938_0# a_37562_0#
+ a_n938_0# a_n938_0# a_n1100_n1200# a_n938_0# a_n938_0# nmos_source_in
Xnmos_source_in_125 a_n938_0# a_n938_0# a_n938_0# dw_n6950_n7050# a_n938_0# a_37562_0#
+ a_n938_0# a_n938_0# a_n1100_n1200# a_n938_0# a_n938_0# nmos_source_in
Xnmos_source_in_136 a_n938_0# a_n938_0# a_n938_0# dw_n6950_n7050# a_n938_0# a_37562_0#
+ a_n938_0# a_n938_0# a_n1100_n1200# a_n938_0# a_n938_0# nmos_source_in
Xnmos_source_in_147 a_n938_0# a_n938_0# a_n938_0# dw_n6950_n7050# a_n938_0# a_37562_0#
+ a_n938_0# a_n938_0# a_n1100_n1200# a_n938_0# a_n938_0# nmos_source_in
Xnmos_source_in_158 a_n938_0# a_n938_0# a_n938_0# dw_n6950_n7050# a_n938_0# a_37562_0#
+ a_n938_0# a_n938_0# a_n1100_n1200# a_n938_0# a_n938_0# nmos_source_in
Xnmos_source_in_169 a_n938_0# a_n938_0# a_n938_0# dw_n6950_n7050# a_n938_0# a_37562_0#
+ a_n938_0# a_n938_0# a_n1100_n1200# a_n938_0# a_n938_0# nmos_source_in
Xnmos_source_in_18 a_n938_0# a_n938_0# a_n938_0# dw_n6950_n7050# a_n938_0# a_37562_0#
+ a_n938_0# a_n938_0# a_n1100_n1200# a_n938_0# a_n938_0# nmos_source_in
Xnmos_source_in_29 a_n938_0# a_n938_0# a_n938_0# dw_n6950_n7050# a_n938_0# a_37562_0#
+ a_n938_0# a_n938_0# a_n1100_n1200# a_n938_0# a_n938_0# nmos_source_in
Xnmos_drain_in_180 a_37562_0# a_37562_0# a_37562_0# dw_n6950_n7050# a_37562_0# a_37562_0#
+ a_n938_0# a_37562_0# a_37562_0# a_n1100_n1200# a_37562_0# a_37562_0# nmos_drain_in
Xnmos_drain_in_191 a_37562_0# a_37562_0# a_37562_0# dw_n6950_n7050# a_37562_0# a_37562_0#
+ a_n938_0# a_37562_0# a_37562_0# a_n1100_n1200# a_37562_0# a_37562_0# nmos_drain_in
Xnmos_source_in_9 a_n938_0# a_n938_0# a_n938_0# dw_n6950_n7050# a_n938_0# a_37562_0#
+ a_n938_0# a_n938_0# a_n1100_n1200# a_n938_0# a_n938_0# nmos_source_in
Xnmos_drain_in_510 a_37562_0# a_37562_0# a_37562_0# dw_n6950_n7050# a_37562_0# a_37562_0#
+ a_n938_0# a_37562_0# a_37562_0# a_n1100_n1200# a_37562_0# a_37562_0# nmos_drain_in
Xnmos_drain_in_521 a_37562_0# a_37562_0# a_37562_0# dw_n6950_n7050# a_37562_0# a_37562_0#
+ a_n938_0# a_37562_0# a_37562_0# a_n1100_n1200# a_37562_0# a_37562_0# nmos_drain_in
Xnmos_drain_in_532 a_37562_0# a_37562_0# a_37562_0# dw_n6950_n7050# a_37562_0# a_37562_0#
+ a_n938_0# a_37562_0# a_37562_0# a_n1100_n1200# a_37562_0# a_37562_0# nmos_drain_in
Xnmos_drain_in_543 a_37562_0# a_37562_0# a_37562_0# dw_n6950_n7050# a_37562_0# a_37562_0#
+ a_n938_0# a_37562_0# a_37562_0# a_n1100_n1200# a_37562_0# a_37562_0# nmos_drain_in
Xnmos_drain_in_554 a_37562_0# a_37562_0# a_37562_0# dw_n6950_n7050# a_37562_0# a_37562_0#
+ a_n938_0# a_37562_0# a_37562_0# a_n1100_n1200# a_37562_0# a_37562_0# nmos_drain_in
Xnmos_drain_in_565 a_37562_0# a_37562_0# a_37562_0# dw_n6950_n7050# a_37562_0# a_37562_0#
+ a_n938_0# a_37562_0# a_37562_0# a_n1100_n1200# a_37562_0# a_37562_0# nmos_drain_in
Xnmos_drain_in_576 a_37562_0# a_37562_0# a_37562_0# dw_n6950_n7050# a_37562_0# a_37562_0#
+ a_n938_0# a_37562_0# a_37562_0# a_n1100_n1200# a_37562_0# a_37562_0# nmos_drain_in
Xnmos_source_in_329 a_n938_0# a_n938_0# a_n938_0# dw_n6950_n7050# a_n938_0# a_37562_0#
+ a_n938_0# a_n938_0# a_n1100_n1200# a_n938_0# a_n938_0# nmos_source_in
Xnmos_source_in_318 a_n938_0# a_n938_0# a_n938_0# dw_n6950_n7050# a_n938_0# a_37562_0#
+ a_n938_0# a_n938_0# a_n1100_n1200# a_n938_0# a_n938_0# nmos_source_in
Xnmos_source_in_307 a_n938_0# a_n938_0# a_n938_0# dw_n6950_n7050# a_n938_0# a_37562_0#
+ a_n938_0# a_n938_0# a_n1100_n1200# a_n938_0# a_n938_0# nmos_source_in
Xnmos_drain_in_340 a_37562_0# a_37562_0# a_37562_0# dw_n6950_n7050# a_37562_0# a_37562_0#
+ a_n938_0# a_37562_0# a_37562_0# a_n1100_n1200# a_37562_0# a_37562_0# nmos_drain_in
Xnmos_drain_in_351 a_37562_0# a_37562_0# a_37562_0# dw_n6950_n7050# a_37562_0# a_37562_0#
+ a_n938_0# a_37562_0# a_37562_0# a_n1100_n1200# a_37562_0# a_37562_0# nmos_drain_in
Xnmos_drain_in_362 a_37562_0# a_37562_0# a_37562_0# dw_n6950_n7050# a_37562_0# a_37562_0#
+ a_n938_0# a_37562_0# a_37562_0# a_n1100_n1200# a_37562_0# a_37562_0# nmos_drain_in
Xnmos_drain_in_373 a_37562_0# a_37562_0# a_37562_0# dw_n6950_n7050# a_37562_0# a_37562_0#
+ a_n938_0# a_37562_0# a_37562_0# a_n1100_n1200# a_37562_0# a_37562_0# nmos_drain_in
Xnmos_drain_in_384 a_37562_0# a_37562_0# a_37562_0# dw_n6950_n7050# a_37562_0# a_37562_0#
+ a_n938_0# a_37562_0# a_37562_0# a_n1100_n1200# a_37562_0# a_37562_0# nmos_drain_in
Xnmos_drain_in_395 a_37562_0# a_37562_0# a_37562_0# dw_n6950_n7050# a_37562_0# a_37562_0#
+ a_n938_0# a_37562_0# a_37562_0# a_n1100_n1200# a_37562_0# a_37562_0# nmos_drain_in
Xnmos_source_in_104 a_n938_0# a_n938_0# a_n938_0# dw_n6950_n7050# a_n938_0# a_37562_0#
+ a_n938_0# a_n938_0# a_n1100_n1200# a_n938_0# a_n938_0# nmos_source_in
Xnmos_source_in_115 a_n938_0# a_n938_0# a_n938_0# dw_n6950_n7050# a_n938_0# a_37562_0#
+ a_n938_0# a_n938_0# a_n1100_n1200# a_n938_0# a_n938_0# nmos_source_in
Xnmos_source_in_126 a_n938_0# a_n938_0# a_n938_0# dw_n6950_n7050# a_n938_0# a_37562_0#
+ a_n938_0# a_n938_0# a_n1100_n1200# a_n938_0# a_n938_0# nmos_source_in
Xnmos_source_in_137 a_n938_0# a_n938_0# a_n938_0# dw_n6950_n7050# a_n938_0# a_37562_0#
+ a_n938_0# a_n938_0# a_n1100_n1200# a_n938_0# a_n938_0# nmos_source_in
Xnmos_source_in_148 a_n938_0# a_n938_0# a_n938_0# dw_n6950_n7050# a_n938_0# a_37562_0#
+ a_n938_0# a_n938_0# a_n1100_n1200# a_n938_0# a_n938_0# nmos_source_in
Xnmos_source_in_159 a_n938_0# a_n938_0# a_n938_0# dw_n6950_n7050# a_n938_0# a_37562_0#
+ a_n938_0# a_n938_0# a_n1100_n1200# a_n938_0# a_n938_0# nmos_source_in
Xnmos_source_in_19 a_n938_0# a_n938_0# a_n938_0# dw_n6950_n7050# a_n938_0# a_37562_0#
+ a_n938_0# a_n938_0# a_n1100_n1200# a_n938_0# a_n938_0# nmos_source_in
Xnmos_drain_in_170 a_37562_0# a_37562_0# a_37562_0# dw_n6950_n7050# a_37562_0# a_37562_0#
+ a_n938_0# a_37562_0# a_37562_0# a_n1100_n1200# a_37562_0# a_37562_0# nmos_drain_in
Xnmos_drain_in_181 a_37562_0# a_37562_0# a_37562_0# dw_n6950_n7050# a_37562_0# a_37562_0#
+ a_n938_0# a_37562_0# a_37562_0# a_n1100_n1200# a_37562_0# a_37562_0# nmos_drain_in
Xnmos_drain_in_192 a_37562_0# a_37562_0# a_37562_0# dw_n6950_n7050# a_37562_0# a_37562_0#
+ a_n938_0# a_37562_0# a_37562_0# a_n1100_n1200# a_37562_0# a_37562_0# nmos_drain_in
Xnmos_source_in_490 a_n938_0# a_n938_0# a_n938_0# dw_n6950_n7050# a_n938_0# a_37562_0#
+ a_n938_0# a_n938_0# a_n1100_n1200# a_n938_0# a_n938_0# nmos_source_in
Xnmos_drain_in_500 a_37562_0# a_37562_0# a_37562_0# dw_n6950_n7050# a_37562_0# a_37562_0#
+ a_n938_0# a_37562_0# a_37562_0# a_n1100_n1200# a_37562_0# a_37562_0# nmos_drain_in
Xnmos_drain_in_511 a_37562_0# a_37562_0# a_37562_0# dw_n6950_n7050# a_37562_0# a_37562_0#
+ a_n938_0# a_37562_0# a_37562_0# a_n1100_n1200# a_37562_0# a_37562_0# nmos_drain_in
Xnmos_drain_in_522 a_37562_0# a_37562_0# a_37562_0# dw_n6950_n7050# a_37562_0# a_37562_0#
+ a_n938_0# a_37562_0# a_37562_0# a_n1100_n1200# a_37562_0# a_37562_0# nmos_drain_in
Xnmos_drain_in_533 a_37562_0# a_37562_0# a_37562_0# dw_n6950_n7050# a_37562_0# a_37562_0#
+ a_n938_0# a_37562_0# a_37562_0# a_n1100_n1200# a_37562_0# a_37562_0# nmos_drain_in
Xnmos_drain_in_544 a_37562_0# a_37562_0# a_37562_0# dw_n6950_n7050# a_37562_0# a_37562_0#
+ a_n938_0# a_37562_0# a_37562_0# a_n1100_n1200# a_37562_0# a_37562_0# nmos_drain_in
Xnmos_drain_in_555 a_37562_0# a_37562_0# a_37562_0# dw_n6950_n7050# a_37562_0# a_37562_0#
+ a_n938_0# a_37562_0# a_37562_0# a_n1100_n1200# a_37562_0# a_37562_0# nmos_drain_in
Xnmos_drain_in_566 a_37562_0# a_37562_0# a_37562_0# dw_n6950_n7050# a_37562_0# a_37562_0#
+ a_n938_0# a_37562_0# a_37562_0# a_n1100_n1200# a_37562_0# a_37562_0# nmos_drain_in
Xnmos_drain_in_577 a_37562_0# a_37562_0# a_37562_0# dw_n6950_n7050# a_37562_0# a_37562_0#